@<TRIPOS>MOLECULE
ZINC14174278
46   49    1
SMALL
USER_CHARGES


@<TRIPOS>ATOM
      1 C1          8.1795   13.0590    0.6901 C.3       1 <0>        -0.1569 
      2 C2          8.3838   11.6879    1.3767 C.3       1 <0>        -0.0193 
      3 H1          8.1548   11.8100    2.4371 H         1 <0>         0.1138 
      4 C3          7.4189   10.6093    0.8433 C.2       1 <0>         0.4688 
      5 O1          6.9036   10.7341   -0.2696 O.2       1 <0>        -0.5118 
      6 N1          7.2007    9.5601    1.6644 N.am      1 <0>        -0.3565 
      7 C4          6.4261    8.4119    1.4355 C.ar      1 <0>         0.0197 
      8 C5          5.9554    7.7371    2.5784 C.ar      1 <0>        -0.1119 
      9 C6          5.1922    6.5679    2.4642 C.ar      1 <0>        -0.1040 
     10 C7          4.9468    6.0828    1.1858 C.ar      1 <0>         0.0744 
     11 C8          5.4139    6.7198    0.0717 C.ar      1 <0>         0.0709 
     12 C9          6.1548    7.8941    0.1513 C.ar      1 <0>        -0.1014 
     13 O2          5.0177    6.0375   -1.0348 O.3       1 <0>        -0.2562 
     14 C10         4.4856    4.8305   -0.5595 C.3       1 <0>        -0.0347 
     15 O3          4.2363    4.9867    0.8124 O.3       1 <0>        -0.2552 
     16 S1         10.1012   11.0831    1.2643 S.3       1 <0>        -0.2234 
     17 C11        10.9734   12.2101    2.3027 C.ar      1 <0>         0.0496 
     18 N2         12.3375   12.2535    2.3735 N.pl3     1 <0>        -0.1310 
     19 H2         12.9831   11.6517    1.8798 H         1 <0>         0.2819 
     20 C12        12.6403   13.2579    3.2514 C.ar      1 <0>         0.1033 
     21 N3         11.5301   13.7902    3.7084 N.2       1 <0>        -0.2033 
     22 N4         10.4653   13.1137    3.1090 N.2       1 <0>        -0.0986 
     23 C13        14.0187   13.6173    3.5123 C.2       1 <0>        -0.2031 
     24 C14        14.4381   14.6622    4.2491 C.2       1 <0>         0.0002 
     25 C15        15.8398   15.0538    4.4897 C.ar      1 <0>        -0.1200 
     26 C16        16.8936   14.6401    3.6641 C.ar      1 <0>        -0.0822 
     27 C17        18.2014   15.0332    3.9417 C.ar      1 <0>        -0.1712 
     28 C18        18.4601   15.8386    5.0473 C.ar      1 <0>         0.2257 
     29 C19        17.4230   16.2509    5.8788 C.ar      1 <0>        -0.1712 
     30 C20        16.1178   15.8540    5.6031 C.ar      1 <0>        -0.0822 
     31 F1         19.7270   16.2245    5.3167 F         1 <0>        -0.2155 
     32 H3          8.7695   13.8388    1.1669 H         1 <0>         0.0836 
     33 H4          8.4729   13.0245   -0.3608 H         1 <0>         0.0836 
     34 H5          7.1374   13.3789    0.7318 H         1 <0>         0.0836 
     35 H6          7.6559    9.5781    2.5744 H         1 <0>         0.3055 
     36 H7          6.1767    8.1183    3.5660 H         1 <0>         0.1548 
     37 H8          4.8232    6.0641    3.3444 H         1 <0>         0.1571 
     38 H9          6.5207    8.3694   -0.7455 H         1 <0>         0.1558 
     39 H10         3.5693    4.5757   -1.0936 H         1 <0>         0.1606 
     40 H11         5.2181    4.0327   -0.6991 H         1 <0>         0.1606 
     41 H12        14.7424   12.9620    3.0501 H         1 <0>         0.1283 
     42 H13        13.6878   15.2988    4.6985 H         1 <0>         0.1505 
     43 H14        16.7104   14.0200    2.7996 H         1 <0>         0.1393 
     44 H15        19.0145   14.7180    3.3028 H         1 <0>         0.1495 
     45 H16        17.6319   16.8745    6.7350 H         1 <0>         0.1495 
     46 H17        15.3229   16.1738    6.2615 H         1 <0>         0.1393 
@<TRIPOS>BOND
     1    1    2 1    
     2    1   32 1    
     3    1   33 1    
     4    1   34 1    
     5    2    3 1    
     6    2    4 1    
     7    2   16 1    
     8    4    5 2    
     9    4    6 am   BACKBONE|DICT|INTERRES
    10    6    7 1    
    11    6   35 1    
    12    7   12 ar   
    13    7    8 ar   
    14    8    9 ar   
    15    8   36 1    
    16    9   10 ar   
    17    9   37 1    
    18   10   15 1    
    19   10   11 ar   
    20   11   12 ar   
    21   11   13 1    
    22   12   38 1    
    23   13   14 1    
    24   14   15 1    
    25   14   39 1    
    26   14   40 1    
    27   16   17 1    
    28   17   22 ar   
    29   17   18 ar   
    30   18   19 1    
    31   18   20 ar   
    32   20   21 ar   
    33   20   23 1    
    34   21   22 ar   
    35   23   24 2    
    36   23   41 1    
    37   24   25 1    
    38   24   42 1    
    39   25   30 ar   
    40   25   26 ar   
    41   26   27 ar   
    42   26   43 1    
    43   27   28 ar   
    44   27   44 1    
    45   28   29 ar   
    46   28   31 1    
    47   29   30 ar   
    48   29   45 1    
    49   30   46 1    
@<TRIPOS>SUBSTRUCTURE
     1 <0>         1 GROUP             0       ****    0 ROOT    
@<TRIPOS>MOLECULE
ZINC05837117
56   59    1
SMALL
USER_CHARGES


@<TRIPOS>ATOM
      1 C1         15.4745   14.7564    3.7792 C.3       1 <0>        -0.1706 
      2 C2         14.0643   14.5520    4.3576 C.3       1 <0>        -0.1788 
      3 C3         13.1466   13.7609    3.4271 C.3       1 <0>         0.1955 
      4 O1         11.8116   13.7429    3.9183 O.3       1 <0>        -0.3708 
      5 C4         10.8582   13.0456    3.2000 C.ar      1 <0>         0.1773 
      6 C5         11.1322   12.2817    2.0547 C.ar      1 <0>        -0.1845 
      7 C6         10.1209   11.5508    1.4383 C.ar      1 <0>        -0.0638 
      8 C7          8.8221   11.5667    1.9531 C.ar      1 <0>        -0.0882 
      9 C8          8.5441   12.3506    3.0729 C.ar      1 <0>        -0.0638 
     10 C9          9.5556   13.0815    3.6911 C.ar      1 <0>        -0.1845 
     11 C10         7.7561   10.7115    1.3454 C.ar      1 <0>        -0.0048 
     12 C11         6.3588   10.7500    1.3959 C.ar      1 <0>        -0.1548 
     13 C12         5.9633    9.6376    0.6339 C.ar      1 <0>         0.1994 
     14 N1          6.9560    8.9124    0.1870 N.2       1 <0>        -0.1808 
     15 N2          8.0313    9.5671    0.6287 N.pl3     1 <0>        -0.0661 
     16 H1          8.9640    9.1878    0.5003 H         1 <0>         0.2936 
     17 O2          4.6687    9.2684    0.3673 O.3       1 <0>        -0.2543 
     18 C13         3.7149   10.0916    0.8795 C.2       1 <0>         0.2673 
     19 C14         3.9197   11.1999    1.6329 C.2       1 <0>        -0.2559 
     20 C15         5.3247   11.7055    2.0075 C.3       1 <0>         0.0665 
     21 H2          5.4009   11.6299    3.0938 H         1 <0>         0.0895 
     22 C16         5.5352   13.1827    1.6647 C.ar      1 <0>        -0.1277 
     23 C17         5.8371   13.5733    0.3585 C.ar      1 <0>        -0.0745 
     24 C18         5.9931   14.9214    0.0506 C.ar      1 <0>        -0.1903 
     25 C19         5.8654   15.9105    1.0385 C.ar      1 <0>         0.2976 
     26 C20         5.5736   15.5019    2.3494 C.ar      1 <0>        -0.1903 
     27 C21         5.3967   14.1559    2.6569 C.ar      1 <0>        -0.0745 
     28 N3          6.0448   17.2827    0.7145 N.pl3     1 <0>        -0.7102 
     29 C22         5.6183   17.7692   -0.5995 C.3       1 <0>         0.0713 
     30 C23         6.0899   18.2903    1.7738 C.3       1 <0>         0.0713 
     31 C24         2.7967   11.9434    2.1087 C.1       1 <0>         0.3898 
     32 N4          1.8872   12.5600    2.4703 N.1       1 <0>        -0.5180 
     33 N5          2.5025    9.5699    0.5222 N.pl3     1 <0>        -0.4607 
     34 H3         15.4467   15.3324    2.8527 H         1 <0>         0.0640 
     35 H4         16.1087   15.2950    4.4843 H         1 <0>         0.0640 
     36 H5         15.9611   13.8031    3.5588 H         1 <0>         0.0640 
     37 H6         14.1412   13.9926    5.2820 H         1 <0>         0.0806 
     38 H7         13.6154   15.5169    4.6038 H         1 <0>         0.0806 
     39 H8         13.1373   14.2486    2.4645 H         1 <0>         0.0361 
     40 H9         13.5364   12.7482    3.3034 H         1 <0>         0.0361 
     41 H10        12.1250   12.2157    1.6380 H         1 <0>         0.1439 
     42 H11        10.3614   10.9534    0.5723 H         1 <0>         0.1431 
     43 H12         7.5567   12.3650    3.5051 H         1 <0>         0.1431 
     44 H13         9.3342   13.6562    4.5776 H         1 <0>         0.1439 
     45 H14         5.9445   12.8326   -0.4215 H         1 <0>         0.1326 
     46 H15         6.2285   15.1747   -0.9704 H         1 <0>         0.1290 
     47 H16         5.4484   16.2178    3.1462 H         1 <0>         0.1290 
     48 H17         5.1467   13.8745    3.6698 H         1 <0>         0.1326 
     49 H18         4.5298   17.7274   -0.6777 H         1 <0>         0.0619 
     50 H19         5.9291   18.8035   -0.7596 H         1 <0>         0.0619 
     51 H20         6.0222   17.1808   -1.4209 H         1 <0>         0.0619 
     52 H21         6.6923   17.9526    2.6179 H         1 <0>         0.0619 
     53 H22         6.5407   19.2146    1.4090 H         1 <0>         0.0619 
     54 H23         5.0860   18.5160    2.1415 H         1 <0>         0.0619 
     55 H24         2.4288    8.5942    0.2745 H         1 <0>         0.2774 
     56 H25         1.6477   10.0750    0.6973 H         1 <0>         0.2774 
@<TRIPOS>BOND
     1    1    2 1    
     2    1   34 1    
     3    1   35 1    
     4    1   36 1    
     5    2    3 1    
     6    2   37 1    
     7    2   38 1    
     8    3    4 1    
     9    3   39 1    
    10    3   40 1    
    11    4    5 1    
    12    5   10 ar   
    13    5    6 ar   
    14    6    7 ar   
    15    6   41 1    
    16    7    8 ar   
    17    7   42 1    
    18    8    9 ar   
    19    8   11 1    
    20    9   10 ar   
    21    9   43 1    
    22   10   44 1    
    23   11   15 ar   
    24   11   12 ar   
    25   12   20 1    
    26   12   13 ar   
    27   13   14 ar   
    28   13   17 1    
    29   14   15 ar   
    30   15   16 1    
    31   17   18 1    
    32   18   19 2    
    33   18   33 1    
    34   19   20 1    
    35   19   31 1    
    36   20   21 1    
    37   20   22 1    
    38   22   27 ar   
    39   22   23 ar   
    40   23   24 ar   
    41   23   45 1    
    42   24   25 ar   
    43   24   46 1    
    44   25   26 ar   
    45   25   28 1    
    46   26   27 ar   
    47   26   47 1    
    48   27   48 1    
    49   28   29 1    
    50   28   30 1    
    51   29   49 1    
    52   29   50 1    
    53   29   51 1    
    54   30   52 1    
    55   30   53 1    
    56   30   54 1    
    57   31   32 3    
    58   33   55 1    
    59   33   56 1    
@<TRIPOS>SUBSTRUCTURE
     1 <0>         1 GROUP             0       ****    0 ROOT    
@<TRIPOS>MOLECULE
ZINC05837117
56   59    1
SMALL
USER_CHARGES


@<TRIPOS>ATOM
      1 C1         14.5095   12.3778    2.1995 C.3       1 <0>        -0.1704 
      2 C2         13.7195   12.5444    3.5066 C.3       1 <0>        -0.1789 
      3 C3         12.3765   13.2698    3.3321 C.3       1 <0>         0.1970 
      4 O1         11.8330   13.4656    4.6333 O.3       1 <0>        -0.3741 
      5 C4         10.4909   13.7428    4.7983 C.ar      1 <0>         0.1663 
      6 C5          9.5717   13.9209    3.7558 C.ar      1 <0>        -0.1836 
      7 C6          8.2391   14.2070    4.0458 C.ar      1 <0>        -0.0675 
      8 C7          7.8037   14.3199    5.3714 C.ar      1 <0>        -0.0582 
      9 C8          8.7163   14.0818    6.4055 C.ar      1 <0>        -0.0675 
     10 C9         10.0498   13.8231    6.1165 C.ar      1 <0>        -0.1836 
     11 C10         6.4265   14.8280    5.6966 C.ar      1 <0>         0.0404 
     12 C11         5.2485   14.7898    4.9083 C.ar      1 <0>        -0.1461 
     13 C12         4.3288   15.4758    5.6736 C.ar      1 <0>         0.1230 
     14 N1          4.9338   15.8463    6.8295 N.pl3     1 <0>        -0.0674 
     15 H1          4.4951   16.3435    7.5903 H         1 <0>         0.2975 
     16 N2          6.2091   15.4514    6.8500 N.2       1 <0>        -0.1561 
     17 O2          3.0213   15.7668    5.3843 O.3       1 <0>        -0.2698 
     18 C13         2.6506   15.3847    4.1290 C.2       1 <0>         0.2570 
     19 C14         3.4003   14.6745    3.2455 C.2       1 <0>        -0.2364 
     20 C15         4.8164   14.1585    3.5778 C.3       1 <0>         0.0667 
     21 H2          5.4751   14.4828    2.7733 H         1 <0>         0.0923 
     22 C16         4.8707   12.6310    3.6231 C.ar      1 <0>        -0.1294 
     23 C17         4.3140   11.9445    4.7050 C.ar      1 <0>        -0.0720 
     24 C18         4.3074   10.5557    4.7263 C.ar      1 <0>        -0.1903 
     25 C19         4.8735    9.8178    3.6754 C.ar      1 <0>         0.3171 
     26 C20         5.4476   10.5181    2.6046 C.ar      1 <0>        -0.1903 
     27 C21         5.4421   11.9101    2.5733 C.ar      1 <0>        -0.0720 
     28 N3          4.8378    8.3997    3.6630 N.pl3     1 <0>        -0.7587 
     29 C22         4.0183    7.7116    4.6595 C.3       1 <0>         0.0900 
     30 C23         6.0481    7.6845    3.2563 C.3       1 <0>         0.0900 
     31 C24         2.8773   14.3740    1.9515 C.1       1 <0>         0.3861 
     32 N4          2.4649   14.1591    0.8918 N.1       1 <0>        -0.5073 
     33 N5          1.3740   15.8333    3.9313 N.pl3     1 <0>        -0.4619 
     34 H3         15.4059   11.7815    2.3657 H         1 <0>         0.0630 
     35 H4         13.9147   11.8700    1.4399 H         1 <0>         0.0630 
     36 H5         14.8289   13.3398    1.7964 H         1 <0>         0.0630 
     37 H6         13.5252   11.5602    3.9367 H         1 <0>         0.0796 
     38 H7         14.3361   13.0785    4.2305 H         1 <0>         0.0796 
     39 H8         12.5110   14.2388    2.8505 H         1 <0>         0.0347 
     40 H9         11.7267   12.6568    2.7049 H         1 <0>         0.0347 
     41 H10         9.8736   13.8627    2.7198 H         1 <0>         0.1391 
     42 H11         7.5676   14.3900    3.2243 H         1 <0>         0.1390 
     43 H12         8.4041   14.1479    7.4380 H         1 <0>         0.1390 
     44 H13        10.7552   13.6770    6.9206 H         1 <0>         0.1391 
     45 H14         3.8641   12.4840    5.5260 H         1 <0>         0.1313 
     46 H15         3.8628   10.0682    5.5812 H         1 <0>         0.1298 
     47 H16         5.8767    9.9934    1.7662 H         1 <0>         0.1298 
     48 H17         5.8664   12.4213    1.7222 H         1 <0>         0.1313 
     49 H18         3.0047    8.1146    4.6800 H         1 <0>         0.0610 
     50 H19         3.9508    6.6420    4.4605 H         1 <0>         0.0610 
     51 H20         4.4422    7.8536    5.6520 H         1 <0>         0.0610 
     52 H21         6.8094    7.7528    4.0356 H         1 <0>         0.0610 
     53 H22         5.8373    6.6306    3.0843 H         1 <0>         0.0610 
     54 H23         6.4895    8.0762    2.3418 H         1 <0>         0.0610 
     55 H24         0.7999   16.0770    4.7251 H         1 <0>         0.2781 
     56 H25         0.9092   15.6795    3.0491 H         1 <0>         0.2781 
@<TRIPOS>BOND
     1    1    2 1    
     2    1   34 1    
     3    1   35 1    
     4    1   36 1    
     5    2    3 1    
     6    2   37 1    
     7    2   38 1    
     8    3    4 1    
     9    3   39 1    
    10    3   40 1    
    11    4    5 1    
    12    5   10 ar   
    13    5    6 ar   
    14    6    7 ar   
    15    6   41 1    
    16    7    8 ar   
    17    7   42 1    
    18    8    9 ar   
    19    8   11 1    
    20    9   10 ar   
    21    9   43 1    
    22   10   44 1    
    23   11   16 ar   
    24   11   12 ar   
    25   12   20 1    
    26   12   13 ar   
    27   13   14 ar   
    28   13   17 1    
    29   14   15 1    
    30   14   16 ar   
    31   17   18 1    
    32   18   19 2    
    33   18   33 1    
    34   19   20 1    
    35   19   31 1    
    36   20   21 1    
    37   20   22 1    
    38   22   27 ar   
    39   22   23 ar   
    40   23   24 ar   
    41   23   45 1    
    42   24   25 ar   
    43   24   46 1    
    44   25   26 ar   
    45   25   28 1    
    46   26   27 ar   
    47   26   47 1    
    48   27   48 1    
    49   28   29 1    
    50   28   30 1    
    51   29   49 1    
    52   29   50 1    
    53   29   51 1    
    54   30   52 1    
    55   30   53 1    
    56   30   54 1    
    57   31   32 3    
    58   33   55 1    
    59   33   56 1    
@<TRIPOS>SUBSTRUCTURE
     1 <0>         1 GROUP             0       ****    0 ROOT    
@<TRIPOS>MOLECULE
ZINC00985833
53   57    1
SMALL
USER_CHARGES


@<TRIPOS>ATOM
      1 C1          5.2209   13.9804   -3.1890 C.3       1 <0>        -0.1702 
      2 C2          4.5937   12.5820   -3.0175 C.3       1 <0>        -0.0815 
      3 C3          3.5236   12.3294   -4.0942 C.3       1 <0>        -0.1702 
      4 C4          5.6498   11.4486   -3.0124 C.3       1 <0>        -0.0811 
      5 C5          6.6636   11.5661   -1.8824 C.ar      1 <0>        -0.0694 
      6 C6          7.9365   12.0820   -2.1331 C.ar      1 <0>        -0.1291 
      7 C7          8.8325   12.2556   -1.0839 C.ar      1 <0>        -0.1005 
      8 C8          8.4629   11.9248    0.2217 C.ar      1 <0>        -0.0302 
      9 C9          7.2078   11.3575    0.4589 C.ar      1 <0>        -0.1005 
     10 C10         6.3082   11.1826   -0.5882 C.ar      1 <0>        -0.1291 
     11 C11         9.3716   12.2301    1.3653 C.ar      1 <0>         0.0357 
     12 C12         8.9934   12.7747    2.6129 C.ar      1 <0>        -0.1513 
     13 C13        10.1939   12.9358    3.2659 C.ar      1 <0>         0.1257 
     14 N1         11.1793   12.4727    2.4491 N.pl3     1 <0>        -0.0652 
     15 H1         12.1638   12.4395    2.6695 H         1 <0>         0.2984 
     16 N2         10.6824   12.0520    1.2798 N.2       1 <0>        -0.1482 
     17 O1         10.4187   13.4539    4.5161 O.3       1 <0>        -0.2686 
     18 C14         9.2770   13.8530    5.1488 C.2       1 <0>         0.2624 
     19 C15         8.0167   13.8369    4.6391 C.2       1 <0>        -0.2407 
     20 C16         7.6849   13.2595    3.2463 C.3       1 <0>         0.0655 
     21 H2          7.0497   12.3908    3.4267 H         1 <0>         0.0969 
     22 C17         6.8892   14.1914    2.3274 C.ar      1 <0>        -0.0810 
     23 C18         7.4906   15.3542    1.8032 C.ar      1 <0>        -0.1081 
     24 C19         6.8147   16.1743    0.8899 C.ar      1 <0>        -0.1141 
     25 C20         5.5279   15.8002    0.5234 C.ar      1 <0>         0.0707 
     26 C21         4.9301   14.6831    1.0333 C.ar      1 <0>         0.0675 
     27 C22         5.5771   13.8553    1.9437 C.ar      1 <0>        -0.0936 
     28 O2          3.7047   14.5306    0.4669 O.3       1 <0>        -0.2566 
     29 C23         3.4707   15.7145   -0.2486 C.3       1 <0>        -0.0342 
     30 O3          4.6957   16.3871   -0.3754 O.3       1 <0>        -0.2586 
     31 C24         6.9389   14.3579    5.4167 C.1       1 <0>         0.3813 
     32 N3          6.0788   14.8367    6.0227 N.1       1 <0>        -0.4999 
     33 N4          9.6301   14.2537    6.4072 N.pl3     1 <0>        -0.4590 
     34 H3          5.9020   14.2186   -2.3707 H         1 <0>         0.0603 
     35 H4          5.7841   14.0516   -4.1203 H         1 <0>         0.0603 
     36 H5          4.4592   14.7603   -3.2031 H         1 <0>         0.0603 
     37 H6          4.0849   12.5699   -2.0514 H         1 <0>         0.0729 
     38 H7          3.9575   12.3276   -5.0953 H         1 <0>         0.0603 
     39 H8          3.0310   11.3676   -3.9446 H         1 <0>         0.0603 
     40 H9          2.7486   13.0968   -4.0703 H         1 <0>         0.0603 
     41 H10         5.1577   10.4788   -2.9209 H         1 <0>         0.0731 
     42 H11         6.1726   11.4138   -3.9699 H         1 <0>         0.0731 
     43 H12         8.2311   12.3820   -3.1298 H         1 <0>         0.1333 
     44 H13         9.8012   12.6875   -1.2877 H         1 <0>         0.1353 
     45 H14         6.9163   11.0734    1.4591 H         1 <0>         0.1353 
     46 H15         5.3287   10.7731   -0.3882 H         1 <0>         0.1333 
     47 H16         8.5016   15.6005    2.0822 H         1 <0>         0.1421 
     48 H17         7.2852   17.0527    0.4745 H         1 <0>         0.1505 
     49 H18         5.0978   12.9611    2.3141 H         1 <0>         0.1517 
     50 H19         3.0513   15.4903   -1.2294 H         1 <0>         0.1579 
     51 H20         2.7754   16.3408    0.3133 H         1 <0>         0.1579 
     52 H21        10.5440   14.0259    6.7712 H         1 <0>         0.2792 
     53 H22         8.9158   14.5152    7.0722 H         1 <0>         0.2792 
@<TRIPOS>BOND
     1    1    2 1    
     2    1   34 1    
     3    1   35 1    
     4    1   36 1    
     5    2    3 1    
     6    2    4 1    
     7    2   37 1    
     8    3   38 1    
     9    3   39 1    
    10    3   40 1    
    11    4    5 1    
    12    4   41 1    
    13    4   42 1    
    14    5   10 ar   
    15    5    6 ar   
    16    6    7 ar   
    17    6   43 1    
    18    7    8 ar   
    19    7   44 1    
    20    8    9 ar   
    21    8   11 1    
    22    9   10 ar   
    23    9   45 1    
    24   10   46 1    
    25   11   16 ar   
    26   11   12 ar   
    27   12   20 1    
    28   12   13 ar   
    29   13   14 ar   
    30   13   17 1    
    31   14   15 1    
    32   14   16 ar   
    33   17   18 1    
    34   18   19 2    
    35   18   33 1    
    36   19   20 1    
    37   19   31 1    
    38   20   21 1    
    39   20   22 1    
    40   22   27 ar   
    41   22   23 ar   
    42   23   24 ar   
    43   23   47 1    
    44   24   25 ar   
    45   24   48 1    
    46   25   30 1    
    47   25   26 ar   
    48   26   27 ar   
    49   26   28 1    
    50   27   49 1    
    51   28   29 1    
    52   29   30 1    
    53   29   50 1    
    54   29   51 1    
    55   31   32 3    
    56   33   52 1    
    57   33   53 1    
@<TRIPOS>SUBSTRUCTURE
     1 <0>         1 GROUP             0       ****    0 ROOT    
@<TRIPOS>MOLECULE
ZINC64164319
59   63    1
SMALL
USER_CHARGES


@<TRIPOS>ATOM
      1 C1         16.9320   15.4932    4.8684 C.3       1 <0>        -0.2221 
      2 C2         16.4610   14.5419    3.7599 C.3       1 <0>         0.1577 
      3 O1         15.0715   14.2904    3.9195 O.3       1 <0>        -0.3271 
      4 C3         14.4275   13.3517    3.1756 C.2       1 <0>         0.6268 
      5 O2         14.9828   12.6620    2.3147 O.2       1 <0>        -0.4303 
      6 C4         12.9518   13.3174    3.4492 C.ar      1 <0>        -0.2786 
      7 C5         12.4219   13.9038    4.6054 C.ar      1 <0>        -0.0673 
      8 C6         11.0578   13.8536    4.8639 C.ar      1 <0>        -0.1392 
      9 C7         10.1838   13.2308    3.9620 C.ar      1 <0>         0.0690 
     10 C8         10.7070   12.6534    2.8022 C.ar      1 <0>        -0.1392 
     11 C9         12.0802   12.6784    2.5550 C.ar      1 <0>        -0.0673 
     12 N1          8.8030   13.0538    4.1881 N.am      1 <0>        -0.4085 
     13 C10         8.0321   13.4963    5.2087 C.2       1 <0>         0.4715 
     14 O3          8.4324   14.2532    6.0932 O.2       1 <0>        -0.5062 
     15 C11         6.5564   13.0157    5.2275 C.3       1 <0>        -0.0895 
     16 H1          6.6431   11.9908    5.5982 H         1 <0>         0.1334 
     17 C12         5.7050   13.7665    6.2677 C.3       1 <0>        -0.1593 
     18 C13         4.2931   13.4160    5.8211 C.3       1 <0>         0.1588 
     19 H2          4.0983   12.4777    6.3477 H         1 <0>         0.1022 
     20 C14         3.1890   14.4113    6.1906 C.3       1 <0>        -0.1465 
     21 C15         2.3416   14.3954    4.9200 C.3       1 <0>        -0.1629 
     22 C16         3.3902   14.2048    3.8223 C.3       1 <0>         0.1290 
     23 N2          4.3216   13.2245    4.3809 N.3       1 <0>        -0.7609 
     24 C17         5.7198   13.1195    3.9013 C.3       1 <0>         0.2431 
     25 C18         6.1640   14.1244    2.8558 C.ar      1 <0>        -0.1579 
     26 C19         6.3943   15.5013    2.9324 C.ar      1 <0>        -0.0737 
     27 C20         6.7336   16.2072    1.7767 C.ar      1 <0>        -0.1630 
     28 C21         6.8336   15.5405    0.5525 C.ar      1 <0>        -0.0838 
     29 C22         6.6308   14.1566    0.4738 C.ar      1 <0>        -0.1089 
     30 C23         6.3070   13.4692    1.6464 C.ar      1 <0>         0.0747 
     31 N3          6.0960   12.1126    1.8349 N.am      1 <0>        -0.3142 
     32 C24         5.7992   11.7888    3.1042 C.2       1 <0>         0.4907 
     33 O4          5.6302   10.6506    3.5400 O.2       1 <0>        -0.4887 
     34 C25         6.7220   13.4512   -0.8698 C.3       1 <0>        -0.1237 
     35 H3         17.9868   15.7381    4.7441 H         1 <0>         0.0740 
     36 H4         16.3703   16.4267    4.8647 H         1 <0>         0.0740 
     37 H5         16.8099   15.0537    5.8577 H         1 <0>         0.0740 
     38 H6         16.6388   14.9904    2.7828 H         1 <0>         0.0462 
     39 H7         17.0287   13.6105    3.8028 H         1 <0>         0.0462 
     40 H8         13.0610   14.3811    5.3355 H         1 <0>         0.1533 
     41 H9         10.7222   14.2583    5.8014 H         1 <0>         0.1457 
     42 H10        10.0604   12.1439    2.1015 H         1 <0>         0.1457 
     43 H11        12.4582   12.1951    1.6633 H         1 <0>         0.1533 
     44 H12         8.3399   12.4819    3.4985 H         1 <0>         0.3016 
     45 H13         5.9125   13.3810    7.2644 H         1 <0>         0.0781 
     46 H14         5.8697   14.8458    6.2727 H         1 <0>         0.0781 
     47 H15         2.5805   14.0549    7.0228 H         1 <0>         0.0781 
     48 H16         3.5745   15.4065    6.4149 H         1 <0>         0.0781 
     49 H17         1.6180   13.5779    4.9055 H         1 <0>         0.0768 
     50 H18         1.7796   15.3204    4.7880 H         1 <0>         0.0768 
     51 H19         2.9657   13.8113    2.8979 H         1 <0>         0.0867 
     52 H20         3.8710   15.1539    3.5872 H         1 <0>         0.0867 
     53 H21         6.2912   16.0261    3.8714 H         1 <0>         0.1281 
     54 H22         6.8979   17.2741    1.8219 H         1 <0>         0.1339 
     55 H23         7.0689   16.1090   -0.3345 H         1 <0>         0.1359 
     56 H24         6.2057   11.4142    1.1161 H         1 <0>         0.2961 
     57 H25         7.7304   13.0748   -1.0487 H         1 <0>         0.0715 
     58 H26         6.0308   12.6090   -0.9116 H         1 <0>         0.0715 
     59 H27         6.4314   14.1148   -1.6852 H         1 <0>         0.0715 
@<TRIPOS>BOND
     1    1    2 1    
     2    1   35 1    
     3    1   36 1    
     4    1   37 1    
     5    2    3 1    
     6    2   38 1    
     7    2   39 1    
     8    3    4 1    
     9    4    5 2    
    10    4    6 1    
    11    6   11 ar   
    12    6    7 ar   
    13    7    8 ar   
    14    7   40 1    
    15    8    9 ar   
    16    8   41 1    
    17    9   10 ar   
    18    9   12 1    
    19   10   11 ar   
    20   10   42 1    
    21   11   43 1    
    22   12   13 am   BACKBONE|DICT|INTERRES
    23   12   44 1    
    24   13   14 2    
    25   13   15 1    
    26   15   16 1    
    27   15   24 1    
    28   15   17 1    
    29   17   18 1    
    30   17   45 1    
    31   17   46 1    
    32   18   19 1    
    33   18   23 1    
    34   18   20 1    
    35   20   21 1    
    36   20   47 1    
    37   20   48 1    
    38   21   22 1    
    39   21   49 1    
    40   21   50 1    
    41   22   23 1    
    42   22   51 1    
    43   22   52 1    
    44   23   24 1    
    45   24   32 1    
    46   24   25 1    
    47   25   30 ar   
    48   25   26 ar   
    49   26   27 ar   
    50   26   53 1    
    51   27   28 ar   
    52   27   54 1    
    53   28   29 ar   
    54   28   55 1    
    55   29   30 ar   
    56   29   34 1    
    57   30   31 1    
    58   31   32 am   BACKBONE|DICT|INTERRES
    59   31   56 1    
    60   32   33 2    
    61   34   57 1    
    62   34   58 1    
    63   34   59 1    
@<TRIPOS>SUBSTRUCTURE
     1 <0>         1 GROUP             0       ****    0 ROOT    
@<TRIPOS>MOLECULE
ZINC04532109
66   69    1
SMALL
USER_CHARGES


@<TRIPOS>ATOM
      1 C1         12.1988   13.0589    2.8655 C.3       1 <0>        -0.2721 
      2 C2         10.8649   12.4465    2.4678 C.2       1 <0>         0.5151 
      3 O1         10.7935   11.6262    1.5560 O.2       1 <0>        -0.4581 
      4 O2          9.8406   12.8987    3.2343 O.3       1 <0>        -0.3155 
      5 C3          8.5119   12.3896    3.0781 C.3       1 <0>         0.2073 
      6 H1          8.5980   11.3376    2.8003 H         1 <0>         0.0583 
      7 C4          7.7296   12.4332    4.4038 C.3       1 <0>        -0.2029 
      8 C5          6.2648   12.7120    4.0216 C.3       1 <0>        -0.1288 
      9 C6          6.2119   12.6654    2.4747 C.3       1 <0>        -0.0693 
     10 H2          5.4668   13.3672    2.0917 H         1 <0>         0.0900 
     11 C7          7.6260   13.1596    2.0616 C.3       1 <0>        -0.0741 
     12 C8          7.8952   12.8595    0.5650 C.3       1 <0>        -0.1206 
     13 C9          7.7299   11.3760    0.2119 C.3       1 <0>        -0.1202 
     14 C10         6.2916   10.8670    0.5191 C.3       1 <0>        -0.0724 
     15 H3          5.6463   11.4968   -0.1012 H         1 <0>         0.0742 
     16 C11         5.8683   11.2130    1.9753 C.3       1 <0>        -0.1381 
     17 H4          6.3897   10.5099    2.6272 H         1 <0>         0.0948 
     18 C12         4.3697   10.8808    2.1189 C.2       1 <0>         0.4397 
     19 O3          3.5389   11.6353    2.6241 O.2       1 <0>        -0.4582 
     20 C13         4.0082    9.5520    1.6816 C.2       1 <0>        -0.2465 
     21 C14         4.7198    8.7903    0.8102 C.2       1 <0>        -0.0103 
     22 C15         6.0204    9.3479    0.1213 C.3       1 <0>         0.0052 
     23 C16         7.2169    8.4167    0.5420 C.3       1 <0>        -0.1174 
     24 C17         6.8449    7.0024    1.0350 C.3       1 <0>        -0.1926 
     25 C18         5.6318    6.4165    0.2888 C.3       1 <0>         0.2170 
     26 H5          5.4573    5.4094    0.6752 H         1 <0>         0.0551 
     27 C19         4.3386    7.2872    0.5400 C.3       1 <0>        -0.0343 
     28 C20         3.3475    7.2249   -0.6516 C.3       1 <0>        -0.1672 
     29 C21         3.6716    6.6650    1.8055 C.3       1 <0>        -0.1672 
     30 O4          5.9319    6.1933   -1.0936 O.3       1 <0>        -0.3261 
     31 C22         6.7079    5.1702   -1.5105 C.2       1 <0>         0.5171 
     32 O5          7.2186    4.3054   -0.7983 O.2       1 <0>        -0.4557 
     33 C23         6.9080    5.1795   -3.0192 C.3       1 <0>        -0.2708 
     34 C24         5.8260    9.3639   -1.4254 C.3       1 <0>        -0.1693 
     35 C25         7.7366   14.7011    2.2678 C.3       1 <0>        -0.1568 
     36 H6         12.3647   12.9460    3.9348 H         1 <0>         0.0966 
     37 H7         13.0110   12.5600    2.3344 H         1 <0>         0.0966 
     38 H8         12.2178   14.1189    2.6128 H         1 <0>         0.0966 
     39 H9          7.7900   11.4672    4.9059 H         1 <0>         0.0862 
     40 H10         8.1147   13.1893    5.0890 H         1 <0>         0.0862 
     41 H11         5.9698   13.6994    4.3786 H         1 <0>         0.0810 
     42 H12         5.5752   12.0111    4.4956 H         1 <0>         0.0810 
     43 H13         7.2295   13.4535   -0.0637 H         1 <0>         0.0709 
     44 H14         8.9050   13.1761    0.2991 H         1 <0>         0.0709 
     45 H15         7.9683   11.2361   -0.8417 H         1 <0>         0.0683 
     46 H16         8.4830   10.7862    0.7282 H         1 <0>         0.0683 
     47 H17         3.1052    9.1524    2.1120 H         1 <0>         0.1512 
     48 H18         7.7731    8.8625    1.3676 H         1 <0>         0.0708 
     49 H19         7.9366    8.3428   -0.2754 H         1 <0>         0.0708 
     50 H20         6.5753    7.0968    2.0879 H         1 <0>         0.0845 
     51 H21         7.6921    6.3157    1.0400 H         1 <0>         0.0845 
     52 H22         2.4428    7.7972   -0.4423 H         1 <0>         0.0697 
     53 H23         3.7606    7.6033   -1.5846 H         1 <0>         0.0697 
     54 H24         3.0389    6.1968   -0.8438 H         1 <0>         0.0697 
     55 H25         4.2670    6.8202    2.7073 H         1 <0>         0.0697 
     56 H26         2.6749    7.0658    1.9905 H         1 <0>         0.0697 
     57 H27         3.5282    5.5892    1.6957 H         1 <0>         0.0697 
     58 H28         7.4888    4.3126   -3.3335 H         1 <0>         0.0976 
     59 H29         5.9461    5.1580   -3.5318 H         1 <0>         0.0976 
     60 H30         7.4411    6.0831   -3.3163 H         1 <0>         0.0976 
     61 H31         5.8041    8.3865   -1.8884 H         1 <0>         0.0679 
     62 H32         4.9032    9.8750   -1.7067 H         1 <0>         0.0679 
     63 H33         6.6407    9.8802   -1.9317 H         1 <0>         0.0679 
     64 H34         7.5018   15.0093    3.2860 H         1 <0>         0.0640 
     65 H35         8.7435   15.0613    2.0656 H         1 <0>         0.0640 
     66 H36         7.0585   15.2438    1.6087 H         1 <0>         0.0640 
@<TRIPOS>BOND
     1    1    2 1    
     2    1   36 1    
     3    1   37 1    
     4    1   38 1    
     5    2    3 2    
     6    2    4 1    
     7    4    5 1    
     8    5    6 1    
     9    5   11 1    
    10    5    7 1    
    11    7    8 1    
    12    7   39 1    
    13    7   40 1    
    14    8    9 1    
    15    8   41 1    
    16    8   42 1    
    17    9   10 1    
    18    9   16 1    
    19    9   11 1    
    20   11   12 1    
    21   11   35 1    
    22   12   13 1    
    23   12   43 1    
    24   12   44 1    
    25   13   14 1    
    26   13   45 1    
    27   13   46 1    
    28   14   15 1    
    29   14   22 1    
    30   14   16 1    
    31   16   17 1    
    32   16   18 1    
    33   18   19 2    
    34   18   20 1    
    35   20   21 2    
    36   20   47 1    
    37   21   27 1    
    38   21   22 1    
    39   22   23 1    
    40   22   34 1    
    41   23   24 1    
    42   23   48 1    
    43   23   49 1    
    44   24   25 1    
    45   24   50 1    
    46   24   51 1    
    47   25   26 1    
    48   25   27 1    
    49   25   30 1    
    50   27   28 1    
    51   27   29 1    
    52   28   52 1    
    53   28   53 1    
    54   28   54 1    
    55   29   55 1    
    56   29   56 1    
    57   29   57 1    
    58   30   31 1    
    59   31   32 2    
    60   31   33 1    
    61   33   58 1    
    62   33   59 1    
    63   33   60 1    
    64   34   61 1    
    65   34   62 1    
    66   34   63 1    
    67   35   64 1    
    68   35   65 1    
    69   35   66 1    
@<TRIPOS>SUBSTRUCTURE
     1 <0>         1 GROUP             0       ****    0 ROOT    
@<TRIPOS>MOLECULE
ZINC04663885
55   58    1
SMALL
USER_CHARGES


@<TRIPOS>ATOM
      1 C1          5.2464   14.9102    1.5791 C.3       1 <0>        -0.1806 
      2 C2          6.1577   14.6548    2.7648 C.2       1 <0>         0.3039 
      3 C3          5.5808   14.7648    4.1947 C.3       1 <0>        -0.2171 
      4 C4          6.3972   13.8422    5.1763 C.3       1 <0>         0.0212 
      5 H1          6.3375   14.2102    6.2058 H         1 <0>         0.1179 
      6 C5          7.8998   13.8610    4.8139 C.2       1 <0>        -0.2193 
      7 C6          8.2673   14.1146    3.5242 C.2       1 <0>         0.2238 
      8 N1          7.3719   14.3311    2.5181 N.2       1 <0>        -0.5137 
      9 C7          9.7286   14.1092    3.0678 C.3       1 <0>        -0.1073 
     10 C8         10.6374   13.3049    4.0131 C.3       1 <0>        -0.0320 
     11 H2         10.3750   12.2571    3.8545 H         1 <0>         0.0814 
     12 C9         10.3518   13.6417    5.4886 C.3       1 <0>        -0.1874 
     13 C10         8.8762   13.4569    5.8334 C.2       1 <0>         0.4425 
     14 O1          8.5524   12.8835    6.8660 O.2       1 <0>        -0.4520 
     15 C11        12.1302   13.4310    3.6715 C.ar      1 <0>        -0.1193 
     16 C12        12.7203   12.4848    2.8310 C.ar      1 <0>        -0.0882 
     17 C13        14.0869   12.5302    2.5722 C.ar      1 <0>        -0.1777 
     18 C14        14.8898   13.5126    3.1440 C.ar      1 <0>         0.1576 
     19 C15        14.2981   14.4834    3.9642 C.ar      1 <0>        -0.1777 
     20 C16        12.9294   14.4414    4.2204 C.ar      1 <0>        -0.0882 
     21 O2         16.2381   13.4477    2.8535 O.3       1 <0>        -0.3659 
     22 C17        17.0996   14.4860    3.3061 C.3       1 <0>         0.1377 
     23 C18         5.7483   12.4558    5.3091 C.ar      1 <0>        -0.1183 
     24 C19         6.2414   11.3426    4.6132 C.ar      1 <0>        -0.0952 
     25 C20         5.6320   10.0952    4.7513 C.ar      1 <0>        -0.1475 
     26 C21         4.5304    9.9441    5.5869 C.ar      1 <0>        -0.0996 
     27 C22         4.0314   11.0419    6.2849 C.ar      1 <0>        -0.1666 
     28 C23         4.6295   12.2924    6.1415 C.ar      1 <0>         0.2333 
     29 F1          4.1145   13.3487    6.8143 F         1 <0>        -0.2138 
     30 C24         5.5430   16.2335    4.6863 C.2       1 <0>         0.5145 
     31 O3          6.0329   17.1738    4.0536 O.2       1 <0>        -0.4407 
     32 O4          4.9064   16.3493    5.8676 O.3       1 <0>        -0.3007 
     33 C25         4.7166   17.6247    6.4656 C.3       1 <0>         0.0951 
     34 H3          4.8100   15.9083    1.6370 H         1 <0>         0.0890 
     35 H4          5.7737   14.8366    0.6235 H         1 <0>         0.0890 
     36 H5          4.4290   14.1880    1.5613 H         1 <0>         0.0890 
     37 H6          4.5432   14.4328    4.1693 H         1 <0>         0.1372 
     38 H7         10.0310   15.1525    3.0602 H         1 <0>         0.0977 
     39 H8          9.8232   13.7098    2.0653 H         1 <0>         0.0977 
     40 H9         10.9535   13.0553    6.1828 H         1 <0>         0.1017 
     41 H10        10.5636   14.6885    5.6715 H         1 <0>         0.1017 
     42 H11        12.1313   11.6918    2.3913 H         1 <0>         0.1339 
     43 H12        14.5282   11.7841    1.9287 H         1 <0>         0.1395 
     44 H13        14.8844   15.2677    4.4175 H         1 <0>         0.1395 
     45 H14        12.5015   15.2027    4.8527 H         1 <0>         0.1339 
     46 H15        16.8084   15.4507    2.8860 H         1 <0>         0.0413 
     47 H16        17.1155   14.5549    4.3948 H         1 <0>         0.0413 
     48 H17        18.1169   14.2771    2.9748 H         1 <0>         0.0413 
     49 H18         7.1014   11.4279    3.9655 H         1 <0>         0.1380 
     50 H19         6.0288    9.2423    4.2204 H         1 <0>         0.1352 
     51 H20         4.0657    8.9755    5.7051 H         1 <0>         0.1368 
     52 H21         3.1830   10.9172    6.9433 H         1 <0>         0.1479 
     53 H22         5.6573   18.1703    6.5616 H         1 <0>         0.0494 
     54 H23         4.0255   18.2260    5.8719 H         1 <0>         0.0494 
     55 H24         4.2910   17.5048    7.4618 H         1 <0>         0.0494 
@<TRIPOS>BOND
     1    1    2 1    
     2    1   34 1    
     3    1   35 1    
     4    1   36 1    
     5    2    8 2    
     6    2    3 1    
     7    3    4 1    
     8    3   30 1    
     9    3   37 1    
    10    4    5 1    
    11    4    6 1    
    12    4   23 1    
    13    6   13 1    
    14    6    7 2    
    15    7    9 1    
    16    7    8 1    
    17    9   10 1    
    18    9   38 1    
    19    9   39 1    
    20   10   11 1    
    21   10   12 1    
    22   10   15 1    
    23   12   13 1    
    24   12   40 1    
    25   12   41 1    
    26   13   14 2    
    27   15   20 ar   
    28   15   16 ar   
    29   16   17 ar   
    30   16   42 1    
    31   17   18 ar   
    32   17   43 1    
    33   18   19 ar   
    34   18   21 1    
    35   19   20 ar   
    36   19   44 1    
    37   20   45 1    
    38   21   22 1    
    39   22   46 1    
    40   22   47 1    
    41   22   48 1    
    42   23   28 ar   
    43   23   24 ar   
    44   24   25 ar   
    45   24   49 1    
    46   25   26 ar   
    47   25   50 1    
    48   26   27 ar   
    49   26   51 1    
    50   27   28 ar   
    51   27   52 1    
    52   28   29 1    
    53   30   31 2    
    54   30   32 1    
    55   32   33 1    
    56   33   53 1    
    57   33   54 1    
    58   33   55 1    
@<TRIPOS>SUBSTRUCTURE
     1 <0>         1 GROUP             0       ****    0 ROOT    
@<TRIPOS>MOLECULE
ZINC03880327
46   48    1
SMALL
USER_CHARGES


@<TRIPOS>ATOM
      1 C1         12.0891   13.2958    5.6302 C.3       1 <0>        -0.1788 
      2 C2         10.9714   13.4642    4.4988 C.3       1 <0>         0.1406 
      3 C3          9.4684   13.2492    4.9733 C.2       1 <0>         0.0416 
      4 S1          9.0170   13.8633    6.4644 S.2       1 <0>        -0.2527 
      5 C4          8.4542   12.6536    4.1007 C.2       1 <0>         0.0838 
      6 C5          7.3130   11.9599    4.4748 C.2       1 <0>         0.0411 
      7 S2          6.5952   11.6065    6.0643 S.3       1 <0>        -0.0400 
      8 C6          4.9253   11.9284    5.5287 C.2       1 <0>        -0.0269 
      9 C7          4.7119   11.6520    4.2138 C.2       1 <0>        -0.0269 
     10 S3          6.1860   11.0845    3.3979 S.3       1 <0>        -0.0400 
     11 C8          3.4394   11.7840    3.4739 C.2       1 <0>         0.5007 
     12 O1          2.5401   12.5674    3.7897 O.2       1 <0>        -0.4179 
     13 O2          3.3879   10.9911    2.3765 O.3       1 <0>        -0.3025 
     14 C9          2.2390   10.9781    1.5414 C.3       1 <0>         0.1011 
     15 C10         3.9181   12.3585    6.5011 C.2       1 <0>         0.5007 
     16 O3          2.7975   11.8543    6.5942 O.2       1 <0>        -0.4179 
     17 O4          4.3668   13.3732    7.2651 O.3       1 <0>        -0.3025 
     18 C11         3.6263   13.8110    8.3939 C.3       1 <0>         0.1011 
     19 C12         8.8341   12.7502    2.6639 C.ar      1 <0>        -0.1570 
     20 C13         7.8634   12.9670    1.6715 C.ar      1 <0>        -0.0668 
     21 C14         8.1524   12.7656    0.3286 C.ar      1 <0>        -0.1698 
     22 C15         9.4240   12.3550   -0.0404 C.ar      1 <0>        -0.0791 
     23 C16        10.4304   12.2542    0.9217 C.ar      1 <0>        -0.1856 
     24 C17        10.1703   12.5549    2.2702 C.ar      1 <0>         0.3122 
     25 N1         11.1647   12.6134    3.2644 N.pl3     1 <0>        -0.4532 
     26 C18        12.5812   12.3530    2.9588 C.3       1 <0>        -0.0648 
     27 C19        11.1057   14.9190    4.0645 C.3       1 <0>        -0.1788 
     28 H1         13.0210   13.7581    5.3016 H         1 <0>         0.0804 
     29 H2         11.8529   13.8219    6.5536 H         1 <0>         0.0804 
     30 H3         12.4317   12.3019    5.9208 H         1 <0>         0.0804 
     31 H4          1.3535   10.6701    2.0991 H         1 <0>         0.0511 
     32 H5          2.0533   11.9645    1.1139 H         1 <0>         0.0511 
     33 H6          2.3857   10.2745    0.7225 H         1 <0>         0.0511 
     34 H7          4.1883   14.5761    8.9280 H         1 <0>         0.0511 
     35 H8          2.6652   14.2312    8.0961 H         1 <0>         0.0511 
     36 H9          3.4483   12.9857    9.0861 H         1 <0>         0.0511 
     37 H10         6.8522   13.2376    1.9376 H         1 <0>         0.1456 
     38 H11         7.3839   12.8903   -0.4204 H         1 <0>         0.1365 
     39 H12         9.6317   12.1755   -1.0855 H         1 <0>         0.1341 
     40 H13        11.4205   12.0065    0.5833 H         1 <0>         0.1355 
     41 H14        13.1039   13.2684    2.6823 H         1 <0>         0.0658 
     42 H15        13.1056   11.8938    3.7955 H         1 <0>         0.0658 
     43 H16        12.7012   11.6433    2.1429 H         1 <0>         0.0658 
     44 H17        10.4312   15.1530    3.2420 H         1 <0>         0.0804 
     45 H18        10.9282   15.6323    4.8643 H         1 <0>         0.0804 
     46 H19        12.1374   15.0538    3.7327 H         1 <0>         0.0804 
@<TRIPOS>BOND
     1    1    2 1    
     2    1   28 1    
     3    1   29 1    
     4    1   30 1    
     5    2   25 1    
     6    2    3 1    
     7    2   27 1    
     8    3    4 2    
     9    3    5 1    
    10    5    6 2    
    11    5   19 1    
    12    6   10 1    
    13    6    7 1    
    14    7    8 1    
    15    8    9 2    
    16    8   15 1    
    17    9   10 1    
    18    9   11 1    
    19   11   12 2    
    20   11   13 1    
    21   13   14 1    
    22   14   31 1    
    23   14   32 1    
    24   14   33 1    
    25   15   16 2    
    26   15   17 1    
    27   17   18 1    
    28   18   34 1    
    29   18   35 1    
    30   18   36 1    
    31   19   24 ar   
    32   19   20 ar   
    33   20   21 ar   
    34   20   37 1    
    35   21   22 ar   
    36   21   38 1    
    37   22   23 ar   
    38   22   39 1    
    39   23   24 ar   
    40   23   40 1    
    41   24   25 1    
    42   25   26 1    
    43   26   41 1    
    44   26   42 1    
    45   26   43 1    
    46   27   44 1    
    47   27   45 1    
    48   27   46 1    
@<TRIPOS>SUBSTRUCTURE
     1 <0>         1 GROUP             0       ****    0 ROOT    
@<TRIPOS>MOLECULE
ZINC04922786
55   58    1
SMALL
USER_CHARGES


@<TRIPOS>ATOM
      1 C1         12.7249    7.0581   -6.5311 C.3       1 <0>        -0.1683 
      2 C2         11.2448    6.6764   -6.3976 C.3       1 <0>        -0.0863 
      3 C3         10.5100    7.5498   -5.3930 C.ar      1 <0>        -0.0727 
      4 C4         10.0559    8.8124   -5.7683 C.ar      1 <0>        -0.1237 
      5 C5          9.3934    9.6183   -4.8467 C.ar      1 <0>        -0.1244 
      6 C6          9.1824    9.1918   -3.5253 C.ar      1 <0>         0.2409 
      7 C7          9.6302    7.9042   -3.1773 C.ar      1 <0>        -0.1244 
      8 C8         10.2925    7.0945   -4.0950 C.ar      1 <0>        -0.1237 
      9 N1          8.5176   10.0043   -2.5954 N.pl3     1 <0>        -0.5014 
     10 C9          8.2588    9.5507   -1.2097 C.3       1 <0>         0.0003 
     11 N2          7.3870   10.3878   -0.3171 N.am      1 <0>        -0.0413 
     12 C10         7.0819    9.7971    0.8928 C.2       1 <0>         0.4388 
     13 O1          7.2618    8.6082    1.1628 O.2       1 <0>        -0.4971 
     14 C11         6.4415   10.7466    1.9414 C.3       1 <0>        -0.1537 
     15 C12         6.9197   12.2297    1.8343 C.3       1 <0>         0.0304 
     16 H1          6.2109   12.8187    2.4204 H         1 <0>         0.0918 
     17 C13         6.7862   12.6375    0.3802 C.2       1 <0>        -0.1198 
     18 C14         7.0517   11.7171   -0.5730 C.2       1 <0>         0.0415 
     19 S1          6.9222   12.1022   -2.3073 S.3       1 <0>        -0.1300 
     20 C15         8.5558   11.4626   -2.6734 C.3       1 <0>         0.0064 
     21 C16         6.3892   13.9752    0.0726 C.1       1 <0>         0.3825 
     22 N3          6.0318   15.0562   -0.1364 N.1       1 <0>        -0.4755 
     23 C17         8.3274   12.5390    2.3819 C.ar      1 <0>        -0.1250 
     24 C18         9.4726   11.8966    1.8903 C.ar      1 <0>        -0.0802 
     25 C19        10.7380   12.2527    2.3439 C.ar      1 <0>        -0.1787 
     26 C20        10.8841   13.2667    3.2990 C.ar      1 <0>         0.1684 
     27 C21         9.7458   13.8896    3.8075 C.ar      1 <0>        -0.1787 
     28 C22         8.4780   13.5318    3.3558 C.ar      1 <0>        -0.0802 
     29 O2         12.0968   13.7027    3.7950 O.3       1 <0>        -0.3707 
     30 C23        13.2983   13.0732    3.3587 C.3       1 <0>         0.1955 
     31 C24        14.4796   13.8649    3.9226 C.3       1 <0>        -0.2207 
     32 H2         13.2510    6.9421   -5.5830 H         1 <0>         0.0631 
     33 H3         13.2265    6.4320   -7.2689 H         1 <0>         0.0631 
     34 H4         12.8307    8.0955   -6.8465 H         1 <0>         0.0631 
     35 H5         11.1534    5.6271   -6.1128 H         1 <0>         0.0737 
     36 H6         10.7493    6.7564   -7.3661 H         1 <0>         0.0737 
     37 H7         10.2167    9.1729   -6.7725 H         1 <0>         0.1356 
     38 H8          9.0507   10.5807   -5.1897 H         1 <0>         0.1394 
     39 H9          9.4998    7.5119   -2.1811 H         1 <0>         0.1394 
     40 H10        10.6385    6.1173   -3.7909 H         1 <0>         0.1356 
     41 H11         9.2321    9.4534   -0.7239 H         1 <0>         0.1048 
     42 H12         7.8270    8.5481   -1.2720 H         1 <0>         0.1048 
     43 H13         5.3826   10.7009    1.6829 H         1 <0>         0.1102 
     44 H14         6.5494   10.3503    2.9523 H         1 <0>         0.1102 
     45 H15         9.2720   11.8800   -1.9647 H         1 <0>         0.1087 
     46 H16         8.8308   11.8638   -3.6456 H         1 <0>         0.1087 
     47 H17         9.4134   11.1275    1.1395 H         1 <0>         0.1349 
     48 H18        11.5899   11.7294    1.9362 H         1 <0>         0.1408 
     49 H19         9.8511   14.6589    4.5570 H         1 <0>         0.1408 
     50 H20         7.6137   14.0424    3.7554 H         1 <0>         0.1349 
     51 H21        13.3318   12.0418    3.7144 H         1 <0>         0.0350 
     52 H22        13.3688   13.0539    2.2702 H         1 <0>         0.0350 
     53 H23        14.4828   14.8874    3.5432 H         1 <0>         0.0747 
     54 H24        14.4302   13.9149    5.0103 H         1 <0>         0.0747 
     55 H25        15.4284   13.4027    3.6493 H         1 <0>         0.0747 
@<TRIPOS>BOND
     1    1    2 1    
     2    1   32 1    
     3    1   33 1    
     4    1   34 1    
     5    2    3 1    
     6    2   35 1    
     7    2   36 1    
     8    3    8 ar   
     9    3    4 ar   
    10    4    5 ar   
    11    4   37 1    
    12    5    6 ar   
    13    5   38 1    
    14    6    7 ar   
    15    6    9 1    
    16    7    8 ar   
    17    7   39 1    
    18    8   40 1    
    19    9   20 1    
    20    9   10 1    
    21   10   11 1    
    22   10   41 1    
    23   10   42 1    
    24   11   18 am   BACKBONE|DICT|INTERRES
    25   11   12 am   BACKBONE|DICT|INTERRES
    26   12   13 2    
    27   12   14 1    
    28   14   15 1    
    29   14   43 1    
    30   14   44 1    
    31   15   16 1    
    32   15   17 1    
    33   15   23 1    
    34   17   18 2    
    35   17   21 1    
    36   18   19 1    
    37   19   20 1    
    38   20   45 1    
    39   20   46 1    
    40   21   22 3    
    41   23   28 ar   
    42   23   24 ar   
    43   24   25 ar   
    44   24   47 1    
    45   25   26 ar   
    46   25   48 1    
    47   26   27 ar   
    48   26   29 1    
    49   27   28 ar   
    50   27   49 1    
    51   28   50 1    
    52   29   30 1    
    53   30   31 1    
    54   30   51 1    
    55   30   52 1    
    56   31   53 1    
    57   31   54 1    
    58   31   55 1    
@<TRIPOS>SUBSTRUCTURE
     1 <0>         1 GROUP             0       ****    0 ROOT    
@<TRIPOS>MOLECULE
ZINC05608116
58   61    1
SMALL
USER_CHARGES


@<TRIPOS>ATOM
      1 C1          8.3107   11.0325   -2.5214 C.3       1 <0>        -0.1243 
      2 C2          8.0845   11.5373   -1.1034 C.ar      1 <0>        -0.0735 
      3 C3          8.7521   10.9118   -0.0476 C.ar      1 <0>        -0.1277 
      4 C4          8.5777   11.3552    1.2607 C.ar      1 <0>        -0.1041 
      5 C5          7.7524   12.4506    1.5369 C.ar      1 <0>        -0.0288 
      6 C6          7.0736   13.0673    0.4814 C.ar      1 <0>        -0.1013 
      7 C7          7.2156   12.6087   -0.8323 C.ar      1 <0>        -0.0812 
      8 C8          6.4192   13.2861   -1.9380 C.3       1 <0>        -0.1221 
      9 C9          7.5745   12.9295    2.9458 C.2       1 <0>        -0.1513 
     10 C10         6.3067   13.0901    3.5447 C.2       1 <0>        -0.0486 
     11 S1          6.4478   13.5983    5.2042 S.3       1 <0>         0.0300 
     12 C11         8.1622   13.5723    5.1150 C.ar      1 <0>         0.2463 
     13 C12         8.6299   13.2299    3.8477 C.ar      1 <0>        -0.0315 
     14 C13        10.0885   13.2411    3.6243 C.ar      1 <0>         0.5981 
     15 O1         10.6707   13.0534    2.5535 O.2       1 <0>        -0.5481 
     16 N1         10.7838   13.4537    4.8141 N.pl3     1 <0>        -0.1778 
     17 C14        10.1972   13.7677    6.0342 C.ar      1 <0>         0.2796 
     18 N2          8.9293   13.8530    6.2010 N.2       1 <0>        -0.5140 
     19 C15        12.2441   13.1384    4.7830 C.3       1 <0>        -0.1569 
     20 C16        13.1002   14.3582    4.4634 C.2       1 <0>         0.5105 
     21 O2         12.6240   15.4866    4.4645 O.2       1 <0>        -0.4388 
     22 O3         14.3912   14.0733    4.2288 O.3       1 <0>        -0.3187 
     23 C17        15.2649   15.1431    3.8742 C.3       1 <0>         0.2150 
     24 H1         14.7092   15.8537    3.2650 H         1 <0>         0.0603 
     25 C18        15.8460   15.8905    5.1181 C.3       1 <0>        -0.1700 
     26 C19        17.1205   15.2933    5.7464 C.3       1 <0>        -0.1281 
     27 C20        18.0644   14.5789    4.7482 C.3       1 <0>        -0.1259 
     28 C21        17.3459   13.7285    3.6655 C.3       1 <0>        -0.0849 
     29 H2         16.7452   12.9187    4.0644 H         1 <0>         0.0742 
     30 C22        16.3652   14.6469    2.9271 C.3       1 <0>        -0.1872 
     31 C23        18.3702   13.0535    2.7563 C.3       1 <0>        -0.1703 
     32 C24         4.9215   12.8564    2.9789 C.3       1 <0>        -0.1782 
     33 H3          7.3585   10.8169   -3.0060 H         1 <0>         0.0675 
     34 H4          8.8210   11.7929   -3.1149 H         1 <0>         0.0675 
     35 H5          8.9066   10.1200   -2.5442 H         1 <0>         0.0675 
     36 H6          9.4093   10.0740   -0.2341 H         1 <0>         0.1303 
     37 H7          9.0931   10.8409    2.0600 H         1 <0>         0.1346 
     38 H8          6.4212   13.9033    0.6877 H         1 <0>         0.1319 
     39 H9          5.5831   12.6559   -2.2417 H         1 <0>         0.0671 
     40 H10         6.0363   14.2610   -1.6327 H         1 <0>         0.0671 
     41 H11         7.0415   13.4508   -2.8156 H         1 <0>         0.0671 
     42 H12        10.8624   13.9339    6.8762 H         1 <0>         0.1204 
     43 H13        12.4649   12.3461    4.0631 H         1 <0>         0.1235 
     44 H14        12.5676   12.7442    5.7470 H         1 <0>         0.1235 
     45 H15        15.0836   15.9678    5.8939 H         1 <0>         0.0805 
     46 H16        16.0885   16.9183    4.8665 H         1 <0>         0.0805 
     47 H17        17.6784   16.0881    6.2435 H         1 <0>         0.0708 
     48 H18        16.8247   14.6537    6.5696 H         1 <0>         0.0708 
     49 H19        18.6820   15.3291    4.2505 H         1 <0>         0.0662 
     50 H20        18.7823   13.9614    5.2904 H         1 <0>         0.0662 
     51 H21        15.9148   14.1425    2.0708 H         1 <0>         0.0803 
     52 H22        16.8899   15.4986    2.4981 H         1 <0>         0.0803 
     53 H23        19.1635   13.7429    2.4781 H         1 <0>         0.0609 
     54 H24        18.8318   12.2061    3.2633 H         1 <0>         0.0609 
     55 H25        17.9029   12.6532    1.8578 H         1 <0>         0.0609 
     56 H26         4.3620   13.7893    2.8931 H         1 <0>         0.0776 
     57 H27         4.9298   12.3914    1.9927 H         1 <0>         0.0776 
     58 H28         4.3420   12.1952    3.6234 H         1 <0>         0.0776 
@<TRIPOS>BOND
     1    1    2 1    
     2    1   33 1    
     3    1   34 1    
     4    1   35 1    
     5    2    7 ar   
     6    2    3 ar   
     7    3    4 ar   
     8    3   36 1    
     9    4    5 ar   
    10    4   37 1    
    11    5    6 ar   
    12    5    9 1    
    13    6    7 ar   
    14    6   38 1    
    15    7    8 1    
    16    8   39 1    
    17    8   40 1    
    18    8   41 1    
    19    9   13 1    
    20    9   10 2    
    21   10   11 1    
    22   10   32 1    
    23   11   12 1    
    24   12   18 ar   
    25   12   13 ar   
    26   13   14 ar   
    27   14   15 2    
    28   14   16 ar   
    29   16   17 ar   
    30   16   19 1    
    31   17   18 ar   
    32   17   42 1    
    33   19   20 1    
    34   19   43 1    
    35   19   44 1    
    36   20   21 2    
    37   20   22 1    
    38   22   23 1    
    39   23   24 1    
    40   23   30 1    
    41   23   25 1    
    42   25   26 1    
    43   25   45 1    
    44   25   46 1    
    45   26   27 1    
    46   26   47 1    
    47   26   48 1    
    48   27   28 1    
    49   27   49 1    
    50   27   50 1    
    51   28   29 1    
    52   28   30 1    
    53   28   31 1    
    54   30   51 1    
    55   30   52 1    
    56   31   53 1    
    57   31   54 1    
    58   31   55 1    
    59   32   56 1    
    60   32   57 1    
    61   32   58 1    
@<TRIPOS>SUBSTRUCTURE
     1 <0>         1 GROUP             0       ****    0 ROOT    
@<TRIPOS>MOLECULE
ZINC04183527
57   60    1
SMALL
USER_CHARGES


@<TRIPOS>ATOM
      1 C1          9.1367   14.2658    6.6453 C.3       1 <0>        -0.1817 
      2 C2          9.4680   14.0601    5.1752 C.2       1 <0>        -0.2836 
      3 C3         10.7643   13.6874    4.6862 C.ar      1 <0>         0.2822 
      4 C4         12.0334   13.4631    5.2535 C.ar      1 <0>        -0.3182 
      5 C5         13.0823   13.0539    4.4226 C.ar      1 <0>        -0.1950 
      6 C6         12.8813   12.8308    3.0590 C.ar      1 <0>        -0.1272 
      7 C7         11.6371   13.0516    2.4652 C.ar      1 <0>        -0.3207 
      8 C8         10.6086   13.5001    3.3006 C.ar      1 <0>         0.3196 
      9 O1          9.3524   13.8375    2.9078 O.3       1 <0>        -0.2711 
     10 C9          8.6463   14.1726    4.0284 C.2       1 <0>         0.1411 
     11 C10         7.2890   14.7174    3.8972 C.2       1 <0>         0.4695 
     12 O2          6.8578   15.3698    4.8490 O.2       1 <0>        -0.4905 
     13 N1          6.5534   14.5804    2.7408 N.am      1 <0>        -0.3052 
     14 C11         6.9601   13.8376    1.5248 C.3       1 <0>         0.0538 
     15 C12         6.7402   12.3277    1.5525 C.ar      1 <0>        -0.1243 
     16 C13         7.8019   11.4710    1.2537 C.ar      1 <0>        -0.1111 
     17 C14         7.5986   10.0935    1.2191 C.ar      1 <0>        -0.1247 
     18 C15         6.3348    9.5551    1.4887 C.ar      1 <0>        -0.0619 
     19 C16         5.2799   10.4179    1.7959 C.ar      1 <0>        -0.1247 
     20 C17         5.4780   11.7946    1.8212 C.ar      1 <0>        -0.1111 
     21 C18         6.0653    8.0451    1.4447 C.3       1 <0>        -0.0426 
     22 C19         6.9965    7.2530    0.5014 C.3       1 <0>        -0.1665 
     23 C20         6.0365    7.4318    2.8563 C.3       1 <0>        -0.1665 
     24 C21         5.1612   15.1032    2.5935 C.3       1 <0>         0.0769 
     25 H1          4.7128   14.7612    1.6596 H         1 <0>         0.0847 
     26 C22         5.1500   16.6527    2.5234 C.3       1 <0>        -0.1529 
     27 C23         3.6957   17.1351    2.4854 C.3       1 <0>        -0.3860 
     28 S1          2.8014   16.0032    3.6740 S.o2      1 <0>         1.0865 
     29 O3          1.6011   15.4817    3.0152 O.2       1 <0>        -0.5523 
     30 O4          2.7148   16.6317    4.9950 O.2       1 <0>        -0.5523 
     31 C24         4.1450   14.6972    3.6987 C.3       1 <0>        -0.3968 
     32 H2          9.1636   13.3194    7.1857 H         1 <0>         0.0746 
     33 H3          9.8499   14.9286    7.1361 H         1 <0>         0.0746 
     34 H4          8.1507   14.6908    6.8270 H         1 <0>         0.0746 
     35 H5         12.1948   13.5950    6.3139 H         1 <0>         0.2012 
     36 H6         14.0582   12.8732    4.8507 H         1 <0>         0.1668 
     37 H7         13.7052   12.4819    2.4514 H         1 <0>         0.1603 
     38 H8         11.4791   12.8972    1.4071 H         1 <0>         0.1996 
     39 H9          6.4036   14.2098    0.6641 H         1 <0>         0.0884 
     40 H10         7.9822   14.0635    1.2344 H         1 <0>         0.0884 
     41 H11         8.7839   11.8650    1.0380 H         1 <0>         0.1326 
     42 H12         8.4359    9.4520    0.9938 H         1 <0>         0.1353 
     43 H13         4.2972   10.0215    2.0087 H         1 <0>         0.1353 
     44 H14         4.6399   12.4377    2.0340 H         1 <0>         0.1326 
     45 H15         5.0655    7.9301    1.0225 H         1 <0>         0.0742 
     46 H16         8.0236    7.2196    0.8625 H         1 <0>         0.0632 
     47 H17         6.6620    6.2216    0.3979 H         1 <0>         0.0632 
     48 H18         7.0125    7.6897   -0.4965 H         1 <0>         0.0632 
     49 H19         5.3529    7.9668    3.5163 H         1 <0>         0.0632 
     50 H20         5.7121    6.3914    2.8293 H         1 <0>         0.0632 
     51 H21         7.0210    7.4527    3.3193 H         1 <0>         0.0632 
     52 H22         5.6611   17.0868    3.3839 H         1 <0>         0.1050 
     53 H23         5.7081   17.0023    1.6539 H         1 <0>         0.1050 
     54 H24         3.2976   16.9254    1.4929 H         1 <0>         0.1742 
     55 H25         3.4899   18.1795    2.7147 H         1 <0>         0.1742 
     56 H26         3.7547   13.6814    3.7171 H         1 <0>         0.1885 
     57 H27         4.5751   14.8518    4.6832 H         1 <0>         0.1885 
@<TRIPOS>BOND
     1    1    2 1    
     2    1   32 1    
     3    1   33 1    
     4    1   34 1    
     5    2   10 2    
     6    2    3 1    
     7    3    8 ar   
     8    3    4 ar   
     9    4    5 ar   
    10    4   35 1    
    11    5    6 ar   
    12    5   36 1    
    13    6    7 ar   
    14    6   37 1    
    15    7    8 ar   
    16    7   38 1    
    17    8    9 1    
    18    9   10 1    
    19   10   11 1    
    20   11   12 2    
    21   11   13 am   BACKBONE|DICT|INTERRES
    22   13   14 1    
    23   13   24 1    
    24   14   15 1    
    25   14   39 1    
    26   14   40 1    
    27   15   20 ar   
    28   15   16 ar   
    29   16   17 ar   
    30   16   41 1    
    31   17   18 ar   
    32   17   42 1    
    33   18   19 ar   
    34   18   21 1    
    35   19   20 ar   
    36   19   43 1    
    37   20   44 1    
    38   21   22 1    
    39   21   23 1    
    40   21   45 1    
    41   22   46 1    
    42   22   47 1    
    43   22   48 1    
    44   23   49 1    
    45   23   50 1    
    46   23   51 1    
    47   24   25 1    
    48   24   31 1    
    49   24   26 1    
    50   26   27 1    
    51   26   52 1    
    52   26   53 1    
    53   27   28 1    
    54   27   54 1    
    55   27   55 1    
    56   28   29 2    
    57   28   30 2    
    58   28   31 1    
    59   31   56 1    
    60   31   57 1    
@<TRIPOS>SUBSTRUCTURE
     1 <0>         1 GROUP             0       ****    0 ROOT    
@<TRIPOS>MOLECULE
ZINC01971071
54   58    1
SMALL
USER_CHARGES


@<TRIPOS>ATOM
      1 C1         16.8234   12.5329    3.0768 C.3       1 <0>        -0.1679 
      2 C2         15.7382   13.2542    2.2662 C.3       1 <0>        -0.0848 
      3 C3         14.3743   13.2910    2.9282 C.ar      1 <0>        -0.0747 
      4 C4         14.1018   14.2014    3.9474 C.ar      1 <0>        -0.1274 
      5 C5         12.8164   14.2766    4.4766 C.ar      1 <0>        -0.1009 
      6 C6         11.7874   13.4543    3.9978 C.ar      1 <0>        -0.0301 
      7 C7         12.0871   12.5313    2.9926 C.ar      1 <0>        -0.1009 
      8 C8         13.3669   12.4516    2.4640 C.ar      1 <0>        -0.1274 
      9 C9         10.4035   13.5539    4.5865 C.2       1 <0>        -0.1397 
     10 C10        10.2268   13.7682    5.9572 C.2       1 <0>        -0.2810 
     11 S1          8.5775   13.8533    6.4646 S.3       1 <0>         0.0321 
     12 C11         8.0658   13.6396    4.8370 C.ar      1 <0>         0.2566 
     13 C12         9.1304   13.4705    3.9421 C.ar      1 <0>        -0.0370 
     14 C13         8.7886   13.2529    2.5243 C.ar      1 <0>         0.5963 
     15 O1          9.5781   13.0516    1.6046 O.2       1 <0>        -0.5522 
     16 N1          7.4151   13.3278    2.2946 N.pl3     1 <0>        -0.1628 
     17 C14         6.4537   13.4975    3.2791 C.ar      1 <0>         0.2863 
     18 N2          6.7449   13.6555    4.5185 N.2       1 <0>        -0.5248 
     19 C15         6.9763   13.2408    0.8728 C.3       1 <0>        -0.0926 
     20 C16         6.8963   11.7748    0.3602 C.2       1 <0>         0.4414 
     21 O2          6.6955   10.8956    1.2025 O.2       1 <0>        -0.5039 
     22 N3          7.0140   11.5132   -0.9834 N.am      1 <0>        -0.1856 
     23 C17         6.8945   12.6415   -1.9382 C.3       1 <0>        -0.0118 
     24 C18         5.6854   12.3266   -2.8386 C.3       1 <0>        -0.1585 
     25 C19         5.9058   11.0378   -3.6451 C.3       1 <0>        -0.0756 
     26 C20         6.4632    9.9111   -2.7800 C.ar      1 <0>        -0.1036 
     27 C21         7.0108   10.1755   -1.5002 C.ar      1 <0>         0.0204 
     28 C22         7.6574    9.1204   -0.8247 C.ar      1 <0>        -0.1129 
     29 C23         7.6648    7.8265   -1.3363 C.ar      1 <0>        -0.1163 
     30 C24         7.0539    7.5619   -2.5553 C.ar      1 <0>        -0.1363 
     31 C25         6.4682    8.6006   -3.2719 C.ar      1 <0>        -0.1168 
     32 H1         17.7585   12.4903    2.5167 H         1 <0>         0.0610 
     33 H2         17.0321   13.0511    4.0122 H         1 <0>         0.0610 
     34 H3         16.5348   11.5091    3.3099 H         1 <0>         0.0610 
     35 H4         15.6321   12.7756    1.2919 H         1 <0>         0.0717 
     36 H5         16.0393   14.2819    2.0642 H         1 <0>         0.0717 
     37 H6         14.8759   14.8584    4.3163 H         1 <0>         0.1305 
     38 H7         12.6322   14.9878    5.2637 H         1 <0>         0.1336 
     39 H8         11.3462   11.8327    2.6360 H         1 <0>         0.1336 
     40 H9         13.5636   11.7478    1.6695 H         1 <0>         0.1305 
     41 H10        11.0042   13.8539    6.7043 H         1 <0>         0.2633 
     42 H11         5.4124   13.4924    2.9683 H         1 <0>         0.1201 
     43 H12         7.6690   13.8249    0.2661 H         1 <0>         0.1084 
     44 H13         6.0025   13.7155    0.7446 H         1 <0>         0.1084 
     45 H14         7.7630   12.6020   -2.5997 H         1 <0>         0.0874 
     46 H15         6.8213   13.6457   -1.5276 H         1 <0>         0.0874 
     47 H16         5.5219   13.1559   -3.5283 H         1 <0>         0.0759 
     48 H17         4.7777   12.2572   -2.2364 H         1 <0>         0.0759 
     49 H18         6.6248   11.2367   -4.4411 H         1 <0>         0.0797 
     50 H19         4.9792   10.7314   -4.1322 H         1 <0>         0.0797 
     51 H20         8.1690    9.2879    0.1123 H         1 <0>         0.1530 
     52 H21         8.1575    7.0364   -0.7881 H         1 <0>         0.1369 
     53 H22         7.0588    6.5599   -2.9582 H         1 <0>         0.1321 
     54 H23         6.0351    8.3895   -4.2386 H         1 <0>         0.1297 
@<TRIPOS>BOND
     1    1    2 1    
     2    1   32 1    
     3    1   33 1    
     4    1   34 1    
     5    2    3 1    
     6    2   35 1    
     7    2   36 1    
     8    3    8 ar   
     9    3    4 ar   
    10    4    5 ar   
    11    4   37 1    
    12    5    6 ar   
    13    5   38 1    
    14    6    7 ar   
    15    6    9 1    
    16    7    8 ar   
    17    7   39 1    
    18    8   40 1    
    19    9   13 1    
    20    9   10 2    
    21   10   11 1    
    22   10   41 1    
    23   11   12 1    
    24   12   18 ar   
    25   12   13 ar   
    26   13   14 ar   
    27   14   15 2    
    28   14   16 ar   
    29   16   17 ar   
    30   16   19 1    
    31   17   18 ar   
    32   17   42 1    
    33   19   20 1    
    34   19   43 1    
    35   19   44 1    
    36   20   21 2    
    37   20   22 am   BACKBONE|DICT|INTERRES
    38   22   27 1    
    39   22   23 1    
    40   23   24 1    
    41   23   45 1    
    42   23   46 1    
    43   24   25 1    
    44   24   47 1    
    45   24   48 1    
    46   25   26 1    
    47   25   49 1    
    48   25   50 1    
    49   26   31 ar   
    50   26   27 ar   
    51   27   28 ar   
    52   28   29 ar   
    53   28   51 1    
    54   29   30 ar   
    55   29   52 1    
    56   30   31 ar   
    57   30   53 1    
    58   31   54 1    
@<TRIPOS>SUBSTRUCTURE
     1 <0>         1 GROUP             0       ****    0 ROOT    
@<TRIPOS>MOLECULE
ZINC08916639
64   67    1
SMALL
USER_CHARGES


@<TRIPOS>ATOM
      1 C1          3.3243   14.9619   -0.0198 C.3       1 <0>        -0.1650 
      2 C2          4.1864   15.5910    1.1005 C.3       1 <0>        -0.0870 
      3 H1          3.5151   15.4811    1.9549 H         1 <0>         0.0661 
      4 C3          5.4312   14.7250    1.4575 C.3       1 <0>         0.0677 
      5 H2          5.1739   13.6648    1.4118 H         1 <0>         0.0923 
      6 C4          6.6032   15.0379    0.5364 C.3       1 <0>        -0.1522 
      7 C5          7.0414   16.3651    1.1271 C.3       1 <0>        -0.1104 
      8 H3          8.0305   16.6453    0.7668 H         1 <0>         0.0912 
      9 C6          6.0316   17.4794    0.7623 C.3       1 <0>        -0.1185 
     10 C7          4.4984   17.1520    0.9229 C.3       1 <0>        -0.0172 
     11 C8          4.0247   17.8597    2.2175 C.3       1 <0>        -0.1692 
     12 C9          3.7551   17.7936   -0.2812 C.3       1 <0>        -0.1692 
     13 C10         7.0654   16.0706    2.6332 C.3       1 <0>         0.0172 
     14 N1          6.0029   15.0640    2.7754 N.am      1 <0>        -0.3611 
     15 C11         5.5678   14.4863    3.9295 C.2       1 <0>         0.4847 
     16 O1          4.5655   13.7693    3.9437 O.2       1 <0>        -0.4914 
     17 C12         6.2711   14.7620    5.1834 C.2       1 <0>        -0.1226 
     18 C13         7.5827   14.4587    5.3968 C.2       1 <0>        -0.0300 
     19 C14         8.6070   13.8329    4.5319 C.ar      1 <0>        -0.1444 
     20 C15         8.3133   12.8684    3.5658 C.ar      1 <0>        -0.0655 
     21 C16         9.3210   12.3653    2.7505 C.ar      1 <0>        -0.1895 
     22 C17        10.6523   12.7918    2.8918 C.ar      1 <0>         0.3236 
     23 C18        10.9321   13.7536    3.8732 C.ar      1 <0>        -0.1895 
     24 C19         9.9262   14.2537    4.6881 C.ar      1 <0>        -0.0655 
     25 N2         11.6887   12.2536    2.0843 N.pl3     1 <0>        -0.7567 
     26 C20        13.0900   12.4475    2.4650 C.3       1 <0>         0.0892 
     27 C21        11.4127   11.0315    1.3348 C.3       1 <0>         0.0892 
     28 N3          5.5098   15.2705    6.2162 N.pl3     1 <0>         0.1297 
     29 C22         5.2591   14.4688    7.3182 C.ar      1 <0>        -0.1647 
     30 C23         4.6272   14.8854    8.4329 C.ar      1 <0>        -0.3079 
     31 C24         4.1650   16.2617    8.4506 C.ar      1 <0>         0.0397 
     32 C25         4.4125   17.0564    7.3820 C.ar      1 <0>        -0.4623 
     33 C26         5.2015   16.6236    6.2277 C.ar      1 <0>         0.6578 
     34 O2          5.6011   17.4530    5.4068 O.2       1 <0>        -0.5706 
     35 H4          3.8308   14.9969   -0.9844 H         1 <0>         0.0605 
     36 H5          3.1156   13.9130    0.1941 H         1 <0>         0.0605 
     37 H6          2.3570   15.4538   -0.1220 H         1 <0>         0.0605 
     38 H7          6.3207   15.0990   -0.5156 H         1 <0>         0.0843 
     39 H8          7.3887   14.2839    0.6247 H         1 <0>         0.0843 
     40 H9          6.3083   18.4753    1.1114 H         1 <0>         0.0664 
     41 H10         6.2162   17.5465   -0.3121 H         1 <0>         0.0664 
     42 H11         4.2310   18.9305    2.1975 H         1 <0>         0.0613 
     43 H12         2.9499   17.7460    2.3656 H         1 <0>         0.0613 
     44 H13         4.5128   17.4530    3.1003 H         1 <0>         0.0613 
     45 H14         4.0376   17.3360   -1.2299 H         1 <0>         0.0613 
     46 H15         2.6723   17.7143   -0.1803 H         1 <0>         0.0613 
     47 H16         3.9824   18.8575   -0.3638 H         1 <0>         0.0613 
     48 H17         6.8768   16.9744    3.2137 H         1 <0>         0.0870 
     49 H18         8.0349   15.6457    2.8788 H         1 <0>         0.0870 
     50 H19         7.9611   14.6865    6.3852 H         1 <0>         0.1299 
     51 H20         7.3092   12.4923    3.4363 H         1 <0>         0.1330 
     52 H21         9.0413   11.6217    2.0205 H         1 <0>         0.1319 
     53 H22        11.9313   14.1241    4.0347 H         1 <0>         0.1319 
     54 H23        10.1802   14.9928    5.4327 H         1 <0>         0.1330 
     55 H24        13.2975   11.9385    3.4073 H         1 <0>         0.0619 
     56 H25        13.7711   12.0478    1.7122 H         1 <0>         0.0619 
     57 H26        13.3356   13.5005    2.5956 H         1 <0>         0.0619 
     58 H27        10.6511   11.1902    0.5707 H         1 <0>         0.0619 
     59 H28        12.3154   10.6535    0.8644 H         1 <0>         0.0619 
     60 H29        11.0546   10.2516    2.0072 H         1 <0>         0.0619 
     61 H30         5.6318   13.4552    7.2204 H         1 <0>         0.1743 
     62 H31         4.4782   14.2148    9.2696 H         1 <0>         0.1896 
     63 H32         3.5891   16.6294    9.2883 H         1 <0>         0.1436 
     64 H33         4.0486   18.0721    7.3776 H         1 <0>         0.1990 
@<TRIPOS>BOND
     1    1    2 1    
     2    1   35 1    
     3    1   36 1    
     4    1   37 1    
     5    2    3 1    
     6    2   10 1    
     7    2    4 1    
     8    4    5 1    
     9    4   14 1    
    10    4    6 1    
    11    6    7 1    
    12    6   38 1    
    13    6   39 1    
    14    7    8 1    
    15    7    9 1    
    16    7   13 1    
    17    9   10 1    
    18    9   40 1    
    19    9   41 1    
    20   10   11 1    
    21   10   12 1    
    22   11   42 1    
    23   11   43 1    
    24   11   44 1    
    25   12   45 1    
    26   12   46 1    
    27   12   47 1    
    28   13   14 1    
    29   13   48 1    
    30   13   49 1    
    31   14   15 am   BACKBONE|DICT|INTERRES
    32   15   16 2    
    33   15   17 1    
    34   17   18 2    
    35   17   28 1    
    36   18   19 1    
    37   18   50 1    
    38   19   24 ar   
    39   19   20 ar   
    40   20   21 ar   
    41   20   51 1    
    42   21   22 ar   
    43   21   52 1    
    44   22   23 ar   
    45   22   25 1    
    46   23   24 ar   
    47   23   53 1    
    48   24   54 1    
    49   25   26 1    
    50   25   27 1    
    51   26   55 1    
    52   26   56 1    
    53   26   57 1    
    54   27   58 1    
    55   27   59 1    
    56   27   60 1    
    57   28   33 ar   
    58   28   29 ar   
    59   29   30 ar   
    60   29   61 1    
    61   30   31 ar   
    62   30   62 1    
    63   31   32 ar   
    64   31   63 1    
    65   32   33 ar   
    66   32   64 1    
    67   33   34 2    
@<TRIPOS>SUBSTRUCTURE
     1 <0>         1 GROUP             0       ****    0 ROOT    
@<TRIPOS>MOLECULE
ZINC08966807
39   41    1
SMALL
USER_CHARGES


@<TRIPOS>ATOM
      1 C1          7.2945   14.4086    7.3938 C.3       1 <0>         0.1379 
      2 O1          8.6408   14.3522    6.9419 O.3       1 <0>        -0.4478 
      3 C2          8.7525   13.9112    5.5999 C.3       1 <0>         0.1173 
      4 C3         10.2364   14.0033    5.1907 C.3       1 <0>        -0.0271 
      5 N1         10.6504   13.4537    3.8804 N.pl3     1 <0>        -0.1925 
      6 C4         12.0253   13.2564    3.6368 C.ar      1 <0>         0.1518 
      7 C5         13.1383   13.6757    4.3846 C.ar      1 <0>         0.1959 
      8 C6         14.4317   13.4637    3.9158 C.ar      1 <0>        -0.1697 
      9 C7         14.6430   12.7278    2.7587 C.ar      1 <0>         0.2246 
     10 C8         13.5477   12.2537    2.0510 C.ar      1 <0>        -0.1139 
     11 C9         12.2526   12.5384    2.4731 C.ar      1 <0>         0.0271 
     12 S1         10.7605   12.0672    1.7110 S.3       1 <0>        -0.1531 
     13 C10         9.7891   13.0841    2.8418 C.2       1 <0>         0.3823 
     14 N2          8.5610   13.3896    2.7305 N.2       1 <0>        -0.5765 
     15 S2          7.5510   12.7372    1.4448 S.o2      1 <0>         0.9806 
     16 O2          6.9676   13.7228    0.5272 O.2       1 <0>        -0.5295 
     17 O3          7.9010   11.4459    0.8423 O.2       1 <0>        -0.5295 
     18 C11         6.2030   12.3322    2.5604 C.ar      1 <0>        -0.1225 
     19 C12         6.1134   11.0537    3.1200 C.ar      1 <0>        -0.0157 
     20 C13         5.1007   10.7638    4.0305 C.ar      1 <0>        -0.1432 
     21 C14         4.1782   11.7499    4.3748 C.ar      1 <0>         0.1185 
     22 C15         4.2596   13.0236    3.8151 C.ar      1 <0>        -0.1432 
     23 C16         5.2738   13.3168    2.9075 C.ar      1 <0>        -0.0157 
     24 Cl1         2.9243   11.3931    5.5045 Cl        1 <0>        -0.1466 
     25 F1         15.8987   12.4609    2.3345 F         1 <0>        -0.1986 
     26 F2         13.0023   14.2537    5.5863 F         1 <0>        -0.1611 
     27 H1          6.7305   15.1753    6.8606 H         1 <0>         0.0349 
     28 H2          6.7847   13.4537    7.2645 H         1 <0>         0.0349 
     29 H3          7.2710   14.6538    8.4553 H         1 <0>         0.0349 
     30 H4          8.1427   14.5614    4.9700 H         1 <0>         0.0364 
     31 H5          8.3896   12.8841    5.5195 H         1 <0>         0.0364 
     32 H6         10.8118   13.4957    5.9656 H         1 <0>         0.1139 
     33 H7         10.5238   15.0537    5.1912 H         1 <0>         0.1139 
     34 H8         15.2720   13.8537    4.4645 H         1 <0>         0.1727 
     35 H9         13.7181   11.6467    1.1775 H         1 <0>         0.1668 
     36 H10         6.8317   10.2872    2.8645 H         1 <0>         0.1536 
     37 H11         5.0359    9.7797    4.4728 H         1 <0>         0.1490 
     38 H12         3.5421   13.7828    4.0895 H         1 <0>         0.1490 
     39 H13         5.3451   14.3085    2.4845 H         1 <0>         0.1536 
@<TRIPOS>BOND
     1    1    2 1    
     2    1   27 1    
     3    1   28 1    
     4    1   29 1    
     5    2    3 1    
     6    3    4 1    
     7    3   30 1    
     8    3   31 1    
     9    4    5 1    
    10    4   32 1    
    11    4   33 1    
    12    5   13 1    
    13    5    6 1    
    14    6   11 ar   
    15    6    7 ar   
    16    7    8 ar   
    17    7   26 1    
    18    8    9 ar   
    19    8   34 1    
    20    9   10 ar   
    21    9   25 1    
    22   10   11 ar   
    23   10   35 1    
    24   11   12 1    
    25   12   13 1    
    26   13   14 2    
    27   14   15 1    
    28   15   16 2    
    29   15   17 2    
    30   15   18 1    
    31   18   23 ar   
    32   18   19 ar   
    33   19   20 ar   
    34   19   36 1    
    35   20   21 ar   
    36   20   37 1    
    37   21   22 ar   
    38   21   24 1    
    39   22   23 ar   
    40   22   38 1    
    41   23   39 1    
@<TRIPOS>SUBSTRUCTURE
     1 <0>         1 GROUP             0       ****    0 ROOT    
@<TRIPOS>MOLECULE
ZINC09371557
44   48    1
SMALL
USER_CHARGES


@<TRIPOS>ATOM
      1 C1          6.0580   12.5258    3.1844 C.ar      1 <0>        -0.1132 
      2 C2          5.5333   13.6729    2.5874 C.ar      1 <0>        -0.1007 
      3 C3          6.3916   14.6362    2.0401 C.ar      1 <0>         0.0043 
      4 C4          7.7741   14.4300    2.0945 C.ar      1 <0>        -0.1042 
      5 C5          8.3048   13.2813    2.6945 C.ar      1 <0>         0.0701 
      6 C6          7.4395   12.3294    3.2323 C.ar      1 <0>        -0.1143 
      7 O1          9.6641   13.0571    2.6950 O.3       1 <0>        -0.2291 
      8 C7         10.4592   13.6283    3.6524 C.2       1 <0>         0.4145 
      9 O2         10.0325   14.3125    4.5870 O.2       1 <0>        -0.4247 
     10 C8         11.9206   13.3659    3.4345 C.ar      1 <0>        -0.0500 
     11 C9         12.3742   12.4778    2.4476 C.ar      1 <0>        -0.0700 
     12 C10        13.7368   12.2553    2.2678 C.ar      1 <0>        -0.1202 
     13 C11        14.6598   12.8984    3.0830 C.ar      1 <0>         0.0649 
     14 C12        14.2255   13.7852    4.0646 C.ar      1 <0>        -0.1202 
     15 C13        12.8643   14.0139    4.2433 C.ar      1 <0>        -0.0700 
     16 Br1        16.5195   12.5480    2.8630 Br        1 <0>        -0.1456 
     17 N1          5.8812   15.8038    1.4282 N.am      1 <0>         0.0052 
     18 C14         6.1452   17.0606    1.8912 C.2       1 <0>         0.3848 
     19 O3          6.8320   17.3785    2.8640 O.2       1 <0>        -0.4846 
     20 C15         5.4663   18.0661    0.9675 C.3       1 <0>        -0.0684 
     21 H1          6.2214   18.7014    0.4990 H         1 <0>         0.0925 
     22 C16         4.2950   18.9051    1.5876 C.3       1 <0>        -0.0796 
     23 H2          4.5955   19.8212    2.0982 H         1 <0>         0.1128 
     24 C17         3.4271   19.1425    0.3585 C.3       1 <0>        -0.1514 
     25 C18         3.2699   17.6581    0.0608 C.3       1 <0>        -0.0796 
     26 H3          2.6412   17.4440   -0.8044 H         1 <0>         0.1128 
     27 C19         4.7687   17.2178   -0.0749 C.3       1 <0>        -0.0684 
     28 H4          5.1676   17.4303   -1.0704 H         1 <0>         0.0925 
     29 C20         5.0923   15.7788    0.3158 C.2       1 <0>         0.3848 
     30 O4          4.7220   14.7930   -0.3242 O.2       1 <0>        -0.4846 
     31 C21         2.6926   17.2502    1.4190 C.2       1 <0>        -0.1769 
     32 C22         3.3123   18.0098    2.3451 C.2       1 <0>        -0.1769 
     33 H5          5.3953   11.7827    3.6065 H         1 <0>         0.1437 
     34 H6          4.4621   13.8136    2.5543 H         1 <0>         0.1437 
     35 H7          8.4318   15.1662    1.6584 H         1 <0>         0.1495 
     36 H8          7.8389   11.4301    3.6825 H         1 <0>         0.1448 
     37 H9         11.6875   11.9500    1.8026 H         1 <0>         0.1575 
     38 H10        14.0714   11.5779    1.4943 H         1 <0>         0.1522 
     39 H11        14.9444   14.2834    4.6967 H         1 <0>         0.1522 
     40 H12        12.5549   14.7003    5.0174 H         1 <0>         0.1575 
     41 H13         2.4876   19.6659    0.5620 H         1 <0>         0.0859 
     42 H14         3.9395   19.6921   -0.4365 H         1 <0>         0.0859 
     43 H15         1.9549   16.4733    1.5633 H         1 <0>         0.1603 
     44 H16         3.1949   17.9971    3.4195 H         1 <0>         0.1603 
@<TRIPOS>BOND
     1    1    6 ar   
     2    1    2 ar   
     3    1   33 1    
     4    2    3 ar   
     5    2   34 1    
     6    3    4 ar   
     7    3   17 1    
     8    4    5 ar   
     9    4   35 1    
    10    5    6 ar   
    11    5    7 1    
    12    6   36 1    
    13    7    8 1    
    14    8    9 2    
    15    8   10 1    
    16   10   15 ar   
    17   10   11 ar   
    18   11   12 ar   
    19   11   37 1    
    20   12   13 ar   
    21   12   38 1    
    22   13   14 ar   
    23   13   16 1    
    24   14   15 ar   
    25   14   39 1    
    26   15   40 1    
    27   17   29 am   BACKBONE|DICT|INTERRES
    28   17   18 am   BACKBONE|DICT|INTERRES
    29   18   19 2    
    30   18   20 1    
    31   20   21 1    
    32   20   27 1    
    33   20   22 1    
    34   22   23 1    
    35   22   32 1    
    36   22   24 1    
    37   24   25 1    
    38   24   41 1    
    39   24   42 1    
    40   25   26 1    
    41   25   27 1    
    42   25   31 1    
    43   27   28 1    
    44   27   29 1    
    45   29   30 2    
    46   31   32 2    
    47   31   43 1    
    48   32   44 1    
@<TRIPOS>SUBSTRUCTURE
     1 <0>         1 GROUP             0       ****    0 ROOT    
@<TRIPOS>MOLECULE
ZINC09413242
47   51    1
SMALL
USER_CHARGES


@<TRIPOS>ATOM
      1 C1          5.2370   17.5189    5.1407 C.3       1 <0>        -0.1145 
      2 N1          5.6410   16.3905    5.9647 N.pl3     1 <0>         0.0993 
      3 C2          5.3079   16.1473    7.2820 C.ar      1 <0>        -0.0044 
      4 N2          5.8799   15.0531    7.7021 N.2       1 <0>        -0.2023 
      5 N3          6.6195   14.5403    6.6529 N.2       1 <0>        -0.1186 
      6 C3          6.4595   15.3293    5.6197 C.ar      1 <0>         0.0183 
      7 S1          7.2173   15.0535    4.0369 S.3       1 <0>        -0.2362 
      8 C4          7.7218   13.3092    4.2464 C.3       1 <0>         0.0226 
      9 C5          8.7045   12.8294    3.1824 C.ar      1 <0>        -0.0751 
     10 C6          8.2272   12.0727    2.1105 C.ar      1 <0>        -0.0987 
     11 C7          9.0976   11.5141    1.1839 C.ar      1 <0>        -0.1307 
     12 C8         10.4690   11.6950    1.3084 C.ar      1 <0>        -0.1058 
     13 C9         11.0005   12.4711    2.3654 C.ar      1 <0>        -0.0386 
     14 C10        10.1125   13.0680    3.3175 C.ar      1 <0>        -0.0149 
     15 C11        10.6829   13.8505    4.3642 C.ar      1 <0>        -0.1199 
     16 C12        12.0628   14.0117    4.4641 C.ar      1 <0>        -0.1216 
     17 C13        12.9138   13.4148    3.5438 C.ar      1 <0>        -0.1275 
     18 C14        12.3990   12.6517    2.5016 C.ar      1 <0>        -0.1127 
     19 C15         4.3920   16.9916    8.1550 C.3       1 <0>        -0.0037 
     20 N4          5.1136   17.7316    9.2037 N.am      1 <0>        -0.1137 
     21 C16         5.6316   17.1300   10.3574 C.ar      1 <0>         0.0120 
     22 C17         5.4982   15.7945   10.7623 C.ar      1 <0>        -0.1218 
     23 C18         6.1192   15.3493   11.9295 C.ar      1 <0>        -0.0938 
     24 C19         6.8560   16.2389   12.7128 C.ar      1 <0>        -0.1394 
     25 C20         6.9756   17.5750   12.3263 C.ar      1 <0>        -0.0669 
     26 C21         6.3673   18.0104   11.1480 C.ar      1 <0>        -0.0231 
     27 S2          6.4249   19.6129   10.4497 S.3       1 <0>        -0.1322 
     28 C22         5.4400   19.0710    9.0075 C.2       1 <0>         0.4315 
     29 O1          5.1334   19.8020    8.0661 O.2       1 <0>        -0.4930 
     30 H1          4.2371   17.3333    4.7487 H         1 <0>         0.0948 
     31 H2          5.2325   18.4295    5.7387 H         1 <0>         0.0948 
     32 H3          5.9269   17.6434    4.3053 H         1 <0>         0.0948 
     33 H4          6.8286   12.6828    4.2352 H         1 <0>         0.1043 
     34 H5          8.1658   13.1291    5.2247 H         1 <0>         0.1043 
     35 H6          7.1678   11.8855    2.0073 H         1 <0>         0.1395 
     36 H7          8.7076   10.9129    0.3752 H         1 <0>         0.1353 
     37 H8         11.1392   11.2332    0.5994 H         1 <0>         0.1338 
     38 H9         10.0477   14.3262    5.0957 H         1 <0>         0.1288 
     39 H10        12.4834   14.6015    5.2641 H         1 <0>         0.1309 
     40 H11        13.9821   13.5437    3.6378 H         1 <0>         0.1318 
     41 H12        13.0664   12.1838    1.7907 H         1 <0>         0.1336 
     42 H13         3.7808   17.6666    7.5540 H         1 <0>         0.1110 
     43 H14         3.6718   16.3419    8.6538 H         1 <0>         0.1110 
     44 H15         4.9396   15.0758   10.1803 H         1 <0>         0.1510 
     45 H16         6.0320   14.3089   12.2137 H         1 <0>         0.1424 
     46 H17         7.3415   15.8905   13.6124 H         1 <0>         0.1392 
     47 H18         7.5577   18.2549   12.9307 H         1 <0>         0.1440 
@<TRIPOS>BOND
     1    1    2 1    
     2    1   30 1    
     3    1   31 1    
     4    1   32 1    
     5    2    6 ar   
     6    2    3 ar   
     7    3    4 ar   
     8    3   19 1    
     9    4    5 ar   
    10    5    6 ar   
    11    6    7 1    
    12    7    8 1    
    13    8    9 1    
    14    8   33 1    
    15    8   34 1    
    16    9   14 ar   
    17    9   10 ar   
    18   10   11 ar   
    19   10   35 1    
    20   11   12 ar   
    21   11   36 1    
    22   12   13 ar   
    23   12   37 1    
    24   13   18 ar   
    25   13   14 ar   
    26   14   15 ar   
    27   15   16 ar   
    28   15   38 1    
    29   16   17 ar   
    30   16   39 1    
    31   17   18 ar   
    32   17   40 1    
    33   18   41 1    
    34   19   20 1    
    35   19   42 1    
    36   19   43 1    
    37   20   28 am   BACKBONE|DICT|INTERRES
    38   20   21 1    
    39   21   26 ar   
    40   21   22 ar   
    41   22   23 ar   
    42   22   44 1    
    43   23   24 ar   
    44   23   45 1    
    45   24   25 ar   
    46   24   46 1    
    47   25   26 ar   
    48   25   47 1    
    49   26   27 1    
    50   27   28 1    
    51   28   29 2    
@<TRIPOS>SUBSTRUCTURE
     1 <0>         1 GROUP             0       ****    0 ROOT    
@<TRIPOS>MOLECULE
ZINC09420629
48   51    1
SMALL
USER_CHARGES


@<TRIPOS>ATOM
      1 C1          8.5473   12.1599   -1.4749 C.3       1 <0>        -0.1380 
      2 C2          7.3346   11.8741   -0.6056 C.ar      1 <0>        -0.0209 
      3 C3          6.9573   10.5566   -0.3324 C.ar      1 <0>        -0.1455 
      4 C4          5.8424   10.3023    0.4637 C.ar      1 <0>        -0.0194 
      5 C5          5.1117   11.3673    0.9944 C.ar      1 <0>        -0.1585 
      6 C6          5.4888   12.6852    0.7252 C.ar      1 <0>        -0.0194 
      7 C7          6.6002   12.9367   -0.0756 C.ar      1 <0>        -0.1455 
      8 S1          3.6996   11.0308    2.0517 S.3       1 <0>         0.9185 
      9 O1          2.9253    9.9559    1.4217 O.2       1 <0>        -0.4764 
     10 O2          3.0757   12.3041    2.4335 O.2       1 <0>        -0.4764 
     11 O3          4.4930   10.3868    3.3769 O.3       1 <0>        -0.3910 
     12 C8          5.2452   11.2292    4.1507 C.ar      1 <0>         0.2306 
     13 C9          4.6860   11.8500    5.2781 C.ar      1 <0>        -0.1844 
     14 C10         5.4513   12.7235    6.0636 C.ar      1 <0>        -0.0032 
     15 C11         6.7767   12.9666    5.6984 C.ar      1 <0>        -0.2780 
     16 C12         7.3161   12.3357    4.6029 C.ar      1 <0>         0.1767 
     17 C13         6.5840   11.4542    3.8216 C.ar      1 <0>        -0.1427 
     18 O4          8.6178   12.6682    4.3948 O.3       1 <0>        -0.2039 
     19 C14         8.9825   13.5241    5.3813 C.2       1 <0>        -0.0169 
     20 C15        10.2318   14.0044    5.5110 C.2       1 <0>        -0.0798 
     21 C16        11.3104   13.6831    4.5957 C.2       1 <0>        -0.1523 
     22 C17        12.5845   14.0723    4.7907 C.2       1 <0>        -0.0351 
     23 C18        13.7396   13.7465    3.9413 C.ar      1 <0>        -0.1005 
     24 C19        13.7267   12.6519    3.0700 C.ar      1 <0>        -0.1092 
     25 C20        14.8719   12.3111    2.3607 C.ar      1 <0>        -0.1321 
     26 C21        16.0321   13.0592    2.5249 C.ar      1 <0>        -0.1184 
     27 C22        16.0375   14.1910    3.3351 C.ar      1 <0>        -0.1321 
     28 C23        14.8893   14.5355    4.0432 C.ar      1 <0>        -0.1092 
     29 C24         7.8394   13.8032    6.2555 C.2       1 <0>         0.4997 
     30 O5          7.8370   14.5789    7.2135 O.2       1 <0>        -0.4263 
     31 H1          8.2503   12.6553   -2.4000 H         1 <0>         0.0776 
     32 H2          9.2376   12.8295   -0.9602 H         1 <0>         0.0776 
     33 H3          9.0964   11.2538   -1.7314 H         1 <0>         0.0776 
     34 H4          7.5264    9.7295   -0.7323 H         1 <0>         0.1411 
     35 H5          5.5545    9.2827    0.6785 H         1 <0>         0.1468 
     36 H6          4.9288   13.5130    1.1368 H         1 <0>         0.1468 
     37 H7          6.8889   13.9564   -0.2830 H         1 <0>         0.1411 
     38 H8          3.6586   11.6468    5.5439 H         1 <0>         0.1618 
     39 H9          5.0182   13.1832    6.9418 H         1 <0>         0.1591 
     40 H10         7.0354   10.9528    2.9792 H         1 <0>         0.1636 
     41 H11        10.4314   14.6535    6.3474 H         1 <0>         0.1644 
     42 H12        11.0704   13.0970    3.7195 H         1 <0>         0.1433 
     43 H13        12.8294   14.6536    5.6641 H         1 <0>         0.1265 
     44 H14        12.8528   12.0261    2.9619 H         1 <0>         0.1320 
     45 H15        14.8555   11.4540    1.7050 H         1 <0>         0.1333 
     46 H16        16.9422   12.7652    2.0260 H         1 <0>         0.1317 
     47 H17        16.9385   14.7780    3.4409 H         1 <0>         0.1333 
     48 H18        14.9121   15.3929    4.7011 H         1 <0>         0.1320 
@<TRIPOS>BOND
     1    1    2 1    
     2    1   31 1    
     3    1   32 1    
     4    1   33 1    
     5    2    7 ar   
     6    2    3 ar   
     7    3    4 ar   
     8    3   34 1    
     9    4    5 ar   
    10    4   35 1    
    11    5    6 ar   
    12    5    8 1    
    13    6    7 ar   
    14    6   36 1    
    15    7   37 1    
    16    8    9 2    
    17    8   10 2    
    18    8   11 1    
    19   11   12 1    
    20   12   17 ar   
    21   12   13 ar   
    22   13   14 ar   
    23   13   38 1    
    24   14   15 ar   
    25   14   39 1    
    26   15   29 1    
    27   15   16 ar   
    28   16   17 ar   
    29   16   18 1    
    30   17   40 1    
    31   18   19 1    
    32   19   20 2    
    33   19   29 1    
    34   20   21 1    
    35   20   41 1    
    36   21   22 2    
    37   21   42 1    
    38   22   23 1    
    39   22   43 1    
    40   23   28 ar   
    41   23   24 ar   
    42   24   25 ar   
    43   24   44 1    
    44   25   26 ar   
    45   25   45 1    
    46   26   27 ar   
    47   26   46 1    
    48   27   28 ar   
    49   27   47 1    
    50   28   48 1    
    51   29   30 2    
@<TRIPOS>SUBSTRUCTURE
     1 <0>         1 GROUP             0       ****    0 ROOT    
@<TRIPOS>MOLECULE
ZINC09564887
45   48    1
SMALL
USER_CHARGES


@<TRIPOS>ATOM
      1 C1          8.3300   12.3491   -2.0450 C.3       1 <0>        -0.0726 
      2 S1          8.4302   11.1274   -0.7175 S.3       1 <0>        -0.3529 
      3 C2          8.5553   12.2485    0.6994 C.3       1 <0>        -0.0539 
      4 C3          9.0026   11.5367    1.9803 C.3       1 <0>        -0.0204 
      5 N1          8.8218   12.3552    3.1873 N.pl3     1 <0>        -0.2404 
      6 C4          7.6363   12.2339    3.9367 C.ar      1 <0>         0.2077 
      7 C5          6.4976   11.4533    3.6470 C.ar      1 <0>        -0.1297 
      8 C6          5.4925   11.3916    4.6076 C.ar      1 <0>         0.1079 
      9 C7          5.5668   12.0995    5.7731 C.ar      1 <0>         0.0489 
     10 C8          6.6508   12.9185    6.0650 C.ar      1 <0>        -0.0415 
     11 C9          7.6915   12.9643    5.1275 C.ar      1 <0>        -0.0319 
     12 S2          9.1937   13.8436    5.2534 S.3       1 <0>        -0.1603 
     13 C10         9.8533   13.1409    3.7056 C.2       1 <0>         0.4411 
     14 N2         11.0348   13.2744    3.2062 N.am      1 <0>        -0.6880 
     15 C11        12.1226   13.8531    3.8713 C.2       1 <0>         0.7800 
     16 O1         11.9836   14.6538    4.7877 O.2       1 <0>        -0.5387 
     17 C12        13.5112   13.4765    3.3485 C.ar      1 <0>        -0.0947 
     18 C13        13.6178   12.4441    2.4051 C.ar      1 <0>        -0.1011 
     19 C14        14.8439   12.0607    1.8825 C.ar      1 <0>        -0.1280 
     20 C15        16.0189   12.6421    2.3268 C.ar      1 <0>        -0.1134 
     21 C16        15.9576   13.6612    3.2567 C.ar      1 <0>        -0.1263 
     22 C17        14.7289   14.1002    3.7591 C.ar      1 <0>         0.1334 
     23 S3         14.7997   15.4538    4.8957 S.3       1 <0>        -0.3526 
     24 C18        16.5070   15.8977    5.3345 C.3       1 <0>        -0.0741 
     25 O2          4.4504   11.8652    6.5121 O.3       1 <0>        -0.2525 
     26 C19         3.8293   10.7673    5.8996 C.3       1 <0>        -0.0345 
     27 O3          4.3317   10.6829    4.5898 O.3       1 <0>        -0.2517 
     28 H1          8.4175   11.8706   -3.0205 H         1 <0>         0.0897 
     29 H2          7.3885   12.8963   -2.0031 H         1 <0>         0.0897 
     30 H3          9.1503   13.0558   -1.9353 H         1 <0>         0.0897 
     31 H4          7.5795   12.7156    0.8386 H         1 <0>         0.0932 
     32 H5          9.2593   13.0494    0.4688 H         1 <0>         0.0932 
     33 H6         10.0415   11.2137    1.8814 H         1 <0>         0.1068 
     34 H7          8.4443   10.6051    2.0692 H         1 <0>         0.1068 
     35 H8          6.4102   10.8725    2.7420 H         1 <0>         0.1630 
     36 H9          6.6964   13.4573    7.0010 H         1 <0>         0.1639 
     37 H10        12.7498   11.9122    2.0399 H         1 <0>         0.1367 
     38 H11        14.8622   11.2702    1.1479 H         1 <0>         0.1352 
     39 H12        16.9755   12.3173    1.9435 H         1 <0>         0.1340 
     40 H13        16.8890   14.1082    3.5636 H         1 <0>         0.1371 
     41 H14        16.4928   16.7111    6.0609 H         1 <0>         0.0917 
     42 H15        17.0250   15.0537    5.7882 H         1 <0>         0.0917 
     43 H16        17.0682   16.2354    4.4644 H         1 <0>         0.0917 
     44 H17         4.0745    9.8567    6.4554 H         1 <0>         0.1632 
     45 H18         2.7430   10.8721    5.9107 H         1 <0>         0.1632 
@<TRIPOS>BOND
     1    1    2 1    
     2    1   28 1    
     3    1   29 1    
     4    1   30 1    
     5    2    3 1    
     6    3    4 1    
     7    3   31 1    
     8    3   32 1    
     9    4    5 1    
    10    4   33 1    
    11    4   34 1    
    12    5   13 1    
    13    5    6 1    
    14    6   11 ar   
    15    6    7 ar   
    16    7    8 ar   
    17    7   35 1    
    18    8   27 1    
    19    8    9 ar   
    20    9   10 ar   
    21    9   25 1    
    22   10   11 ar   
    23   10   36 1    
    24   11   12 1    
    25   12   13 1    
    26   13   14 2    BACKBONE|DICT|INTERRES
    27   14   15 am   BACKBONE|DICT|INTERRES
    28   15   16 2    
    29   15   17 1    
    30   17   22 ar   
    31   17   18 ar   
    32   18   19 ar   
    33   18   37 1    
    34   19   20 ar   
    35   19   38 1    
    36   20   21 ar   
    37   20   39 1    
    38   21   22 ar   
    39   21   40 1    
    40   22   23 1    
    41   23   24 1    
    42   24   41 1    
    43   24   42 1    
    44   24   43 1    
    45   25   26 1    
    46   26   27 1    
    47   26   44 1    
    48   26   45 1    
@<TRIPOS>SUBSTRUCTURE
     1 <0>         1 GROUP             0       ****    0 ROOT    
@<TRIPOS>MOLECULE
ZINC09623795
45   47    1
SMALL
USER_CHARGES


@<TRIPOS>ATOM
      1 C1         20.2206   18.1219    4.9449 C.3       1 <0>        -0.1650 
      2 C2         19.1937   17.2336    4.2211 C.3       1 <0>        -0.1641 
      3 C3         19.8701   16.3479    3.1583 C.3       1 <0>        -0.1650 
      4 S1         18.2841   16.1954    5.5380 S.o2      1 <0>         0.8385 
      5 O1         17.6323   17.1283    6.4643 O.2       1 <0>        -0.5387 
      6 O2         19.2004   15.1702    6.0503 O.2       1 <0>        -0.5387 
      7 C4         16.9617   15.3299    4.6989 C.ar      1 <0>        -0.1634 
      8 C5         17.2533   14.3410    3.7604 C.ar      1 <0>        -0.0371 
      9 C6         16.2160   13.6217    3.1770 C.ar      1 <0>        -0.1126 
     10 C7         14.8775   13.8727    3.5220 C.ar      1 <0>        -0.0775 
     11 C8         14.6011   14.8734    4.4659 C.ar      1 <0>        -0.1126 
     12 C9         15.6368   15.5871    5.0575 C.ar      1 <0>        -0.0371 
     13 C10        13.7764   13.0635    2.8662 C.2       1 <0>         0.7744 
     14 O3         14.0745   12.2537    1.9878 O.2       1 <0>        -0.5411 
     15 N1         12.4778   13.3934    3.2640 N.am      1 <0>        -0.7088 
     16 C11        11.4024   12.8512    2.8134 C.2       1 <0>         0.4546 
     17 N2         10.0980   13.2555    3.1083 N.pl3     1 <0>        -0.2407 
     18 C12         9.0434   12.5177    2.5365 C.ar      1 <0>         0.2068 
     19 C13         7.6628   12.6919    2.7116 C.ar      1 <0>        -0.1305 
     20 C14         6.7614   11.8527    2.0531 C.ar      1 <0>        -0.0822 
     21 C15         7.2308   10.8405    1.2146 C.ar      1 <0>         0.0510 
     22 C16         8.6030   10.6644    1.0354 C.ar      1 <0>        -0.0516 
     23 C17         9.4937   11.5046    1.7030 C.ar      1 <0>        -0.0210 
     24 S2         11.2315   11.4542    1.6645 S.3       1 <0>        -0.1574 
     25 Cl1         6.1138    9.8044    0.4048 Cl        1 <0>        -0.1389 
     26 C18         9.8079   14.3225    4.0808 C.3       1 <0>         0.0623 
     27 C19         9.3672   13.8504    5.4083 C.1       1 <0>        -0.1683 
     28 C20         8.8993   13.4541    6.4644 C.1       1 <0>        -0.1863 
     29 H1         20.9753   17.5192    5.4517 H         1 <0>         0.0791 
     30 H2         20.7381   18.7874    4.2534 H         1 <0>         0.0791 
     31 H3         19.7408   18.7376    5.7048 H         1 <0>         0.0791 
     32 H4         18.4329   17.8530    3.7505 H         1 <0>         0.1583 
     33 H5         20.4719   15.5625    3.6161 H         1 <0>         0.0791 
     34 H6         19.1457   15.8760    2.4972 H         1 <0>         0.0791 
     35 H7         20.5325   16.9318    2.5174 H         1 <0>         0.0791 
     36 H8         18.2764   14.0943    3.5139 H         1 <0>         0.1540 
     37 H9         16.4705   12.8536    2.4600 H         1 <0>         0.1469 
     38 H10        13.5888   15.0998    4.7689 H         1 <0>         0.1469 
     39 H11        15.4001   16.3316    5.8031 H         1 <0>         0.1540 
     40 H12         7.2684   13.4611    3.3578 H         1 <0>         0.1489 
     41 H13         5.6991   11.9832    2.1973 H         1 <0>         0.1541 
     42 H14         8.9641    9.8687    0.3985 H         1 <0>         0.1578 
     43 H15        10.6628   14.9883    4.2121 H         1 <0>         0.1112 
     44 H16         9.0166   14.9563    3.6835 H         1 <0>         0.1112 
     45 H17         8.4341   13.0935    7.3570 H         1 <0>         0.2328 
@<TRIPOS>BOND
     1    1    2 1    
     2    1   29 1    
     3    1   30 1    
     4    1   31 1    
     5    2    3 1    
     6    2    4 1    
     7    2   32 1    
     8    3   33 1    
     9    3   34 1    
    10    3   35 1    
    11    4    5 2    
    12    4    6 2    
    13    4    7 1    
    14    7   12 ar   
    15    7    8 ar   
    16    8    9 ar   
    17    8   36 1    
    18    9   10 ar   
    19    9   37 1    
    20   10   11 ar   
    21   10   13 1    
    22   11   12 ar   
    23   11   38 1    
    24   12   39 1    
    25   13   14 2    
    26   13   15 am   BACKBONE|DICT|INTERRES
    27   15   16 2    BACKBONE|DICT|INTERRES
    28   16   24 1    
    29   16   17 1    
    30   17   18 1    
    31   17   26 1    
    32   18   23 ar   
    33   18   19 ar   
    34   19   20 ar   
    35   19   40 1    
    36   20   21 ar   
    37   20   41 1    
    38   21   22 ar   
    39   21   25 1    
    40   22   23 ar   
    41   22   42 1    
    42   23   24 1    
    43   26   27 1    
    44   26   43 1    
    45   26   44 1    
    46   27   28 3    
    47   28   45 1    
@<TRIPOS>SUBSTRUCTURE
     1 <0>         1 GROUP             0       ****    0 ROOT    
@<TRIPOS>MOLECULE
ZINC09623908
51   53    1
SMALL
USER_CHARGES


@<TRIPOS>ATOM
      1 C1          6.1408    8.5209    1.3909 C.3       1 <0>        -0.1696 
      2 C2          6.2564    9.8392    0.6105 C.3       1 <0>        -0.0813 
      3 C3          7.2298   10.8071    1.2637 C.ar      1 <0>        -0.0956 
      4 C4          6.7644   11.8315    2.0947 C.ar      1 <0>        -0.0870 
      5 C5          7.6657   12.6899    2.7279 C.ar      1 <0>        -0.1369 
      6 C6          9.0451   12.5224    2.5427 C.ar      1 <0>         0.2006 
      7 C7          9.4941   11.5064    1.7134 C.ar      1 <0>        -0.0252 
      8 C8          8.6039   10.6537    1.0644 C.ar      1 <0>        -0.0571 
      9 S1         11.2305   11.4587    1.6644 S.3       1 <0>        -0.1663 
     10 C9         11.4038   12.8540    2.8128 C.2       1 <0>         0.4585 
     11 N1         12.4809   13.3900    3.2643 N.am      1 <0>        -0.7194 
     12 C10        13.7777   13.0543    2.8651 C.2       1 <0>         0.7774 
     13 O1         14.0735   12.2538    1.9777 O.2       1 <0>        -0.5453 
     14 C11        14.8803   13.8581    3.5233 C.ar      1 <0>        -0.0744 
     15 C12        14.6046   14.8608    4.4654 C.ar      1 <0>        -0.1121 
     16 C13        15.6398   15.5737    5.0566 C.ar      1 <0>        -0.0372 
     17 C14        16.9647   15.3136    4.6999 C.ar      1 <0>        -0.1630 
     18 C15        17.2557   14.3214    3.7645 C.ar      1 <0>        -0.0372 
     19 C16        16.2185   13.6036    3.1794 C.ar      1 <0>        -0.1121 
     20 S2         18.2862   16.1813    5.5366 S.o2      1 <0>         0.8385 
     21 O2         17.6342   17.1139    6.4631 O.2       1 <0>        -0.5393 
     22 O3         19.2047   15.1576    6.0474 O.2       1 <0>        -0.5393 
     23 C17        19.1912   17.2185    4.2162 C.3       1 <0>        -0.1653 
     24 C18        20.2422   18.0836    4.9340 C.3       1 <0>        -0.1649 
     25 C19        19.8374   16.3343    3.1323 C.3       1 <0>        -0.1649 
     26 N2         10.1008   13.2644    3.1061 N.pl3     1 <0>        -0.2415 
     27 C20         9.8135   14.3290    4.0819 C.3       1 <0>         0.0637 
     28 C21         9.3765   13.8536    5.4099 C.1       1 <0>        -0.1670 
     29 C22         8.9060   13.4538    6.4636 C.1       1 <0>        -0.1893 
     30 H1          5.4382    7.8407    0.9095 H         1 <0>         0.0640 
     31 H2          5.7917    8.6921    2.4103 H         1 <0>         0.0640 
     32 H3          7.1040    8.0120    1.4538 H         1 <0>         0.0640 
     33 H4          6.5846    9.6369   -0.4106 H         1 <0>         0.0743 
     34 H5          5.2733   10.3046    0.5242 H         1 <0>         0.0743 
     35 H6          5.7046   11.9542    2.2647 H         1 <0>         0.1412 
     36 H7          7.2726   13.4613    3.3719 H         1 <0>         0.1424 
     37 H8          8.9721    9.8537    0.4375 H         1 <0>         0.1451 
     38 H9         13.5922   15.0895    4.7675 H         1 <0>         0.1464 
     39 H10        15.4016   16.3206    5.8001 H         1 <0>         0.1533 
     40 H11        18.2780   14.0735    3.5184 H         1 <0>         0.1533 
     41 H12        16.4715   12.8344    2.4627 H         1 <0>         0.1464 
     42 H13        18.4314   17.8537    3.7642 H         1 <0>         0.1582 
     43 H14        21.0022   17.4637    5.4130 H         1 <0>         0.0789 
     44 H15        20.7504   18.7574    4.2434 H         1 <0>         0.0789 
     45 H16        19.7833   18.6890    5.7156 H         1 <0>         0.0789 
     46 H17        20.5011   16.9136    2.4892 H         1 <0>         0.0789 
     47 H18        20.4306   15.5303    3.5711 H         1 <0>         0.0789 
     48 H19        19.0939   15.8854    2.4761 H         1 <0>         0.0789 
     49 H20        10.6678   14.9956    4.2111 H         1 <0>         0.1096 
     50 H21         9.0197   14.9626    3.6878 H         1 <0>         0.1096 
     51 H22         8.4344   13.0914    7.3525 H         1 <0>         0.2325 
@<TRIPOS>BOND
     1    1    2 1    
     2    1   30 1    
     3    1   31 1    
     4    1   32 1    
     5    2    3 1    
     6    2   33 1    
     7    2   34 1    
     8    3    8 ar   
     9    3    4 ar   
    10    4    5 ar   
    11    4   35 1    
    12    5    6 ar   
    13    5   36 1    
    14    6   26 1    
    15    6    7 ar   
    16    7    8 ar   
    17    7    9 1    
    18    8   37 1    
    19    9   10 1    
    20   10   11 2    BACKBONE|DICT|INTERRES
    21   10   26 1    
    22   11   12 am   BACKBONE|DICT|INTERRES
    23   12   13 2    
    24   12   14 1    
    25   14   19 ar   
    26   14   15 ar   
    27   15   16 ar   
    28   15   38 1    
    29   16   17 ar   
    30   16   39 1    
    31   17   18 ar   
    32   17   20 1    
    33   18   19 ar   
    34   18   40 1    
    35   19   41 1    
    36   20   21 2    
    37   20   22 2    
    38   20   23 1    
    39   23   24 1    
    40   23   25 1    
    41   23   42 1    
    42   24   43 1    
    43   24   44 1    
    44   24   45 1    
    45   25   46 1    
    46   25   47 1    
    47   25   48 1    
    48   26   27 1    
    49   27   28 1    
    50   27   49 1    
    51   27   50 1    
    52   28   29 3    
    53   29   51 1    
@<TRIPOS>SUBSTRUCTURE
     1 <0>         1 GROUP             0       ****    0 ROOT    
@<TRIPOS>MOLECULE
ZINC09693138
49   52    1
SMALL
USER_CHARGES


@<TRIPOS>ATOM
      1 C1         14.7590   13.3884    3.3783 C.3       1 <0>        -0.2207 
      2 C2         13.5204   12.6525    2.8692 C.3       1 <0>         0.1953 
      3 O1         12.3645   13.3201    3.3687 O.3       1 <0>        -0.3705 
      4 C3         11.1240   13.0373    2.8299 C.ar      1 <0>         0.1691 
      5 C4         10.0273   13.6337    3.4513 C.ar      1 <0>        -0.1786 
      6 C5          8.7391   13.4275    2.9647 C.ar      1 <0>        -0.0801 
      7 C6          8.5236   12.6256    1.8380 C.ar      1 <0>        -0.1258 
      8 C7          9.6268   12.0322    1.2113 C.ar      1 <0>        -0.0801 
      9 C8         10.9111   12.2211    1.7107 C.ar      1 <0>        -0.1786 
     10 C9          7.0800   12.4466    1.3295 C.3       1 <0>         0.0306 
     11 H1          6.6525   13.4512    1.3228 H         1 <0>         0.0926 
     12 C10         6.8851   11.8823   -0.1182 C.3       1 <0>        -0.1540 
     13 C11         7.1543   10.3570   -0.2174 C.2       1 <0>         0.4408 
     14 O2          7.7206    9.8906   -1.2071 O.2       1 <0>        -0.4983 
     15 N1          6.7231    9.6333    0.8731 N.am      1 <0>        -0.0636 
     16 C12         7.2303    8.2343    0.9750 C.3       1 <0>         0.0139 
     17 N2          6.2744    7.2664    1.5347 N.pl3     1 <0>        -0.5457 
     18 C13         5.9261    7.7003    2.8836 C.3       1 <0>         0.0239 
     19 S1          4.9454    9.2101    2.8403 S.3       1 <0>        -0.1051 
     20 C14         6.1079   10.2557    1.9566 C.2       1 <0>         0.0435 
     21 C15         6.2426   11.5697    2.2490 C.2       1 <0>        -0.1165 
     22 C16         5.5712   12.1803    3.3526 C.1       1 <0>         0.3801 
     23 N3          5.0404   12.7243    4.2234 N.1       1 <0>        -0.4726 
     24 C17         6.3800    5.8978    1.2973 C.ar      1 <0>         0.2751 
     25 C18         5.2903    5.0589    1.5696 C.ar      1 <0>        -0.1286 
     26 C19         5.3888    3.6766    1.4105 C.ar      1 <0>        -0.1161 
     27 C20         6.5873    3.1100    0.9829 C.ar      1 <0>        -0.1159 
     28 C21         7.6838    3.9262    0.7089 C.ar      1 <0>         0.0725 
     29 C22         7.5785    5.3081    0.8598 C.ar      1 <0>        -0.1173 
     30 Cl1         9.1798    3.2248    0.2096 Cl        1 <0>        -0.1475 
     31 H2         14.7963   14.4073    2.9903 H         1 <0>         0.0748 
     32 H3         14.7498   13.4478    4.4654 H         1 <0>         0.0748 
     33 H4         15.6726   12.8777    3.0734 H         1 <0>         0.0748 
     34 H5         13.5209   11.6208    3.2251 H         1 <0>         0.0351 
     35 H6         13.5627   12.6397    1.7798 H         1 <0>         0.0351 
     36 H7         10.1806   14.2567    4.3204 H         1 <0>         0.1411 
     37 H8          7.9041   13.8924    3.4690 H         1 <0>         0.1347 
     38 H9          9.5202   11.4126    0.3360 H         1 <0>         0.1347 
     39 H10        11.7242   11.7245    1.2039 H         1 <0>         0.1411 
     40 H11         7.4621   12.4357   -0.8583 H         1 <0>         0.1100 
     41 H12         5.8350   11.9668   -0.4001 H         1 <0>         0.1100 
     42 H13         7.5683    7.8469    0.0102 H         1 <0>         0.1124 
     43 H14         8.1169    8.2664    1.6080 H         1 <0>         0.1124 
     44 H15         5.3196    6.9625    3.4102 H         1 <0>         0.1018 
     45 H16         6.8182    7.8561    3.4957 H         1 <0>         0.1018 
     46 H17         4.3566    5.4830    1.9095 H         1 <0>         0.1424 
     47 H18         4.5389    3.0446    1.6263 H         1 <0>         0.1422 
     48 H19         6.6673    2.0394    0.8717 H         1 <0>         0.1467 
     49 H20         8.4553    5.9078    0.6669 H         1 <0>         0.1519 
@<TRIPOS>BOND
     1    1    2 1    
     2    1   31 1    
     3    1   32 1    
     4    1   33 1    
     5    2    3 1    
     6    2   34 1    
     7    2   35 1    
     8    3    4 1    
     9    4    9 ar   
    10    4    5 ar   
    11    5    6 ar   
    12    5   36 1    
    13    6    7 ar   
    14    6   37 1    
    15    7    8 ar   
    16    7   10 1    
    17    8    9 ar   
    18    8   38 1    
    19    9   39 1    
    20   10   11 1    
    21   10   21 1    
    22   10   12 1    
    23   12   13 1    
    24   12   40 1    
    25   12   41 1    
    26   13   14 2    
    27   13   15 am   BACKBONE|DICT|INTERRES
    28   15   20 am   BACKBONE|DICT|INTERRES
    29   15   16 1    
    30   16   17 1    
    31   16   42 1    
    32   16   43 1    
    33   17   18 1    
    34   17   24 1    
    35   18   19 1    
    36   18   44 1    
    37   18   45 1    
    38   19   20 1    
    39   20   21 2    
    40   21   22 1    
    41   22   23 3    
    42   24   29 ar   
    43   24   25 ar   
    44   25   26 ar   
    45   25   46 1    
    46   26   27 ar   
    47   26   47 1    
    48   27   28 ar   
    49   27   48 1    
    50   28   29 ar   
    51   28   30 1    
    52   29   49 1    
@<TRIPOS>SUBSTRUCTURE
     1 <0>         1 GROUP             0       ****    0 ROOT    
@<TRIPOS>MOLECULE
ZINC09725160
41   43    1
SMALL
USER_CHARGES


@<TRIPOS>ATOM
      1 C1         18.4777   16.5457    3.5296 C.3       1 <0>        -0.3732 
      2 S1         17.6543   15.3414    4.7135 S.o2      1 <0>         0.8515 
      3 O1         17.2282   16.1042    5.8918 O.2       1 <0>        -0.5320 
      4 O2         18.5887   14.2280    4.8645 O.2       1 <0>        -0.5320 
      5 C2         16.1581   14.6537    3.9527 C.ar      1 <0>        -0.2039 
      6 C3         16.2356   13.6009    3.0284 C.ar      1 <0>         0.0008 
      7 C4         15.0745   12.9379    2.5968 C.ar      1 <0>        -0.1585 
      8 C5         13.8160   13.3096    3.0987 C.ar      1 <0>         0.2571 
      9 C6         13.7573   14.3585    3.9987 C.ar      1 <0>        -0.0513 
     10 C7         14.8993   15.0416    4.4255 C.ar      1 <0>         0.0409 
     11 S2         12.1157   14.6537    4.4645 S.3       1 <0>        -0.1574 
     12 C8         11.4293   13.3853    3.4376 C.2       1 <0>         0.4367 
     13 N1         10.1909   13.0968    3.2643 N.am      1 <0>        -0.6830 
     14 C9          9.1020   13.6607    3.9099 C.2       1 <0>         0.7739 
     15 O3          9.1354   14.2537    4.9894 O.2       1 <0>        -0.5338 
     16 C10         7.7936   13.3313    3.2346 C.ar      1 <0>        -0.1005 
     17 C11         7.4597   11.9846    3.0188 C.ar      1 <0>        -0.1009 
     18 C12         6.2695   11.6300    2.3884 C.ar      1 <0>        -0.1193 
     19 C13         5.3904   12.6202    1.9597 C.ar      1 <0>        -0.1152 
     20 C14         5.7071   13.9619    2.1603 C.ar      1 <0>        -0.1062 
     21 C15         6.8992   14.3266    2.7907 C.ar      1 <0>         0.0428 
     22 Br1         7.2316   16.1933    3.0027 Br        1 <0>        -0.1076 
     23 N2         12.5276   12.7985    2.8060 N.pl3     1 <0>        -0.2328 
     24 C16        12.3090   11.9936    1.6030 C.3       1 <0>        -0.0074 
     25 C17        11.2012   10.9526    1.5817 C.2       1 <0>        -0.1970 
     26 C18        10.0681   11.0537    0.8645 C.2       1 <0>        -0.2063 
     27 H1         18.0317   17.5202    3.6645 H         1 <0>         0.1637 
     28 H2         19.5241   16.6151    3.8243 H         1 <0>         0.1637 
     29 H3         18.4311   16.2010    2.5022 H         1 <0>         0.1637 
     30 H4         17.2021   13.2668    2.6764 H         1 <0>         0.1592 
     31 H5         15.1758   12.1257    1.8936 H         1 <0>         0.1492 
     32 H6         14.8165   15.8314    5.1595 H         1 <0>         0.1632 
     33 H7          8.1286   11.1966    3.3344 H         1 <0>         0.1409 
     34 H8          6.0334   10.5868    2.2342 H         1 <0>         0.1391 
     35 H9          4.4661   12.3481    1.4715 H         1 <0>         0.1394 
     36 H10         5.0215   14.7259    1.8240 H         1 <0>         0.1481 
     37 H11        12.0318   12.7339    0.8645 H         1 <0>         0.0996 
     38 H12        13.2219   11.5082    1.2645 H         1 <0>         0.0996 
     39 H13        11.3561   10.0806    2.1969 H         1 <0>         0.1409 
     40 H14         9.3232   10.2714    0.8989 H         1 <0>         0.1222 
     41 H15         9.8679   11.9116    0.2389 H         1 <0>         0.1222 
@<TRIPOS>BOND
     1    1    2 1    
     2    1   27 1    
     3    1   28 1    
     4    1   29 1    
     5    2    3 2    
     6    2    4 2    
     7    2    5 1    
     8    5   10 ar   
     9    5    6 ar   
    10    6    7 ar   
    11    6   30 1    
    12    7    8 ar   
    13    7   31 1    
    14    8   23 1    
    15    8    9 ar   
    16    9   10 ar   
    17    9   11 1    
    18   10   32 1    
    19   11   12 1    
    20   12   13 2    BACKBONE|DICT|INTERRES
    21   12   23 1    
    22   13   14 am   BACKBONE|DICT|INTERRES
    23   14   15 2    
    24   14   16 1    
    25   16   21 ar   
    26   16   17 ar   
    27   17   18 ar   
    28   17   33 1    
    29   18   19 ar   
    30   18   34 1    
    31   19   20 ar   
    32   19   35 1    
    33   20   21 ar   
    34   20   36 1    
    35   21   22 1    
    36   23   24 1    
    37   24   25 1    
    38   24   37 1    
    39   24   38 1    
    40   25   26 2    
    41   25   39 1    
    42   26   40 1    
    43   26   41 1    
@<TRIPOS>SUBSTRUCTURE
     1 <0>         1 GROUP             0       ****    0 ROOT    
@<TRIPOS>MOLECULE
ZINC09737294
44   47    1
SMALL
USER_CHARGES


@<TRIPOS>ATOM
      1 C1          6.0973   11.5568   -1.7162 C.3       1 <0>        -0.1698 
      2 C2          7.0053   12.2462   -0.6901 C.3       1 <0>        -0.1500 
      3 C3          7.3385   11.3303    0.5062 C.3       1 <0>        -0.0637 
      4 N1          8.2007   11.9811    1.5253 N.pl3     1 <0>        -0.2681 
      5 C4          9.5540   11.7533    1.3655 C.ar      1 <0>         0.7851 
      6 O1         10.0315   11.0608    0.4665 O.2       1 <0>        -0.5809 
      7 C5         10.4091   12.4658    2.3867 C.ar      1 <0>        -0.5074 
      8 C6         11.8029   12.3508    2.3731 C.ar      1 <0>         0.0305 
      9 C7         12.5517   13.0543    3.3191 C.ar      1 <0>        -0.2711 
     10 C8         11.9170   13.8537    4.2739 C.ar      1 <0>        -0.0327 
     11 C9         10.5235   13.9498    4.2874 C.ar      1 <0>        -0.4105 
     12 C10         9.7739   13.2546    3.3401 C.ar      1 <0>         0.7891 
     13 N2          8.3852   13.3772    3.3748 N.2       1 <0>        -0.8141 
     14 C11         7.6367   12.7614    2.5306 C.ar      1 <0>         0.4769 
     15 S1          5.8266   12.9682    2.6504 S.3       1 <0>        -0.1389 
     16 C12         5.4413   13.2530    4.3750 C.ar      1 <0>         0.1119 
     17 C13         4.2508   12.6125    4.8493 C.ar      1 <0>         0.0605 
     18 C14         3.3775   11.7674    4.1030 C.ar      1 <0>        -0.1581 
     19 C15         2.2644   11.1938    4.7130 C.ar      1 <0>        -0.1121 
     20 C16         1.9843   11.4372    6.0530 C.ar      1 <0>        -0.1037 
     21 C17         2.8085   12.2608    6.8120 C.ar      1 <0>        -0.1610 
     22 C18         3.9458   12.8619    6.2259 C.ar      1 <0>         0.1089 
     23 N3          4.7292   13.6570    7.0064 N.ar      1 <0>        -0.1660 
     24 C19         5.8429   14.1826    6.4357 C.ar      1 <0>         0.0429 
     25 N4          6.2301   14.0372    5.1459 N.ar      1 <0>        -0.1116 
     26 C20         6.7656   15.0138    7.3212 C.3       1 <0>         0.4940 
     27 F1          8.0149   14.5452    7.2666 F         1 <0>        -0.1578 
     28 F2          6.7710   16.2600    6.8643 F         1 <0>        -0.1578 
     29 F3          6.3852   15.0600    8.5996 F         1 <0>        -0.1578 
     30 H1          6.5715   10.6632   -2.1245 H         1 <0>         0.0640 
     31 H2          5.1482   11.2585   -1.2692 H         1 <0>         0.0640 
     32 H3          5.8758   12.2231   -2.5510 H         1 <0>         0.0640 
     33 H4          7.9283   12.5518   -1.1874 H         1 <0>         0.0814 
     34 H5          6.5178   13.1581   -0.3429 H         1 <0>         0.0814 
     35 H6          6.4165   10.9681    0.9640 H         1 <0>         0.0922 
     36 H7          7.7855   10.4090    0.1244 H         1 <0>         0.0922 
     37 H8         12.3085   11.7293    1.6445 H         1 <0>         0.1378 
     38 H9         13.6292   12.9709    3.3144 H         1 <0>         0.1657 
     39 H10        12.5052   14.3864    5.0067 H         1 <0>         0.1513 
     40 H11        10.0221   14.5537    5.0283 H         1 <0>         0.1968 
     41 H12         3.5755   11.5499    3.0646 H         1 <0>         0.1547 
     42 H13         1.6182   10.5394    4.1465 H         1 <0>         0.1435 
     43 H14         1.1354   10.9587    6.5208 H         1 <0>         0.1442 
     44 H15         2.5956   12.4234    7.8594 H         1 <0>         0.1602 
@<TRIPOS>BOND
     1    1    2 1    
     2    1   30 1    
     3    1   31 1    
     4    1   32 1    
     5    2    3 1    
     6    2   33 1    
     7    2   34 1    
     8    3    4 1    
     9    3   35 1    
    10    3   36 1    
    11    4   14 ar   
    12    4    5 ar   
    13    5    6 2    
    14    5    7 ar   
    15    7   12 ar   
    16    7    8 ar   
    17    8    9 ar   
    18    8   37 1    
    19    9   10 ar   
    20    9   38 1    
    21   10   11 ar   
    22   10   39 1    
    23   11   12 ar   
    24   11   40 1    
    25   12   13 ar   
    26   13   14 ar   
    27   14   15 1    
    28   15   16 1    
    29   16   25 ar   
    30   16   17 ar   
    31   17   22 ar   
    32   17   18 ar   
    33   18   19 ar   
    34   18   41 1    
    35   19   20 ar   
    36   19   42 1    
    37   20   21 ar   
    38   20   43 1    
    39   21   22 ar   
    40   21   44 1    
    41   22   23 ar   
    42   23   24 ar   
    43   24   25 ar   
    44   24   26 1    
    45   26   27 1    
    46   26   28 1    
    47   26   29 1    
@<TRIPOS>SUBSTRUCTURE
     1 <0>         1 GROUP             0       ****    0 ROOT    
@<TRIPOS>MOLECULE
ZINC10211862
40   42    1
SMALL
USER_CHARGES


@<TRIPOS>ATOM
      1 C1         17.2238   12.1241    2.8645 C.3       1 <0>        -0.1832 
      2 C2         15.9084   12.8339    3.0669 C.ar      1 <0>        -0.1428 
      3 C3         14.6085   12.4114    2.8312 C.ar      1 <0>        -0.1786 
      4 C4         13.7095   13.3924    3.2645 C.ar      1 <0>        -0.1373 
      5 C5         14.4988   14.4673    3.6828 C.ar      1 <0>        -0.0488 
      6 N1         15.8448   14.1007    3.6068 N.pl3     1 <0>         0.3583 
      7 C6         16.9464   14.8686    4.0645 C.ar      1 <0>        -0.1476 
      8 C7         16.8083   15.4997    5.2881 C.ar      1 <0>        -0.1099 
      9 C8         17.6965   16.4837    5.6472 C.ar      1 <0>         0.0789 
     10 C9         18.8297   16.7675    4.9021 C.ar      1 <0>        -0.1060 
     11 C10        19.0588   16.0373    3.7462 C.ar      1 <0>         0.0789 
     12 C11        18.1353   15.0664    3.3430 C.ar      1 <0>        -0.1099 
     13 Cl1        20.4317   16.4293    2.7880 Cl        1 <0>        -0.1258 
     14 Cl2        17.2317   17.4537    6.9294 Cl        1 <0>        -0.1258 
     15 C12        14.0317   15.8526    4.1171 C.3       1 <0>        -0.1982 
     16 C13        12.2345   13.3451    3.2579 C.2       1 <0>         0.4692 
     17 O1         11.5734   14.2023    3.8482 O.2       1 <0>        -0.4556 
     18 C14        11.5188   12.2224    2.4639 C.3       1 <0>        -0.2057 
     19 N2         10.0310   12.3726    2.3924 N.pl3     1 <0>         0.2631 
     20 C15         9.4322   12.3317    1.1427 C.ar      1 <0>         0.4308 
     21 O2         10.0317   12.2537    0.0709 O.2       1 <0>        -0.5486 
     22 C16         7.9727   12.4224    1.2112 C.ar      1 <0>         0.0099 
     23 C17         7.3131   12.5133    2.3955 C.ar      1 <0>        -0.1871 
     24 C18         8.0449   12.5240    3.6294 C.ar      1 <0>         0.3431 
     25 N3          9.3280   12.4680    3.6073 N.2       1 <0>        -0.5033 
     26 Cl3         5.5495   12.6239    2.4785 Cl        1 <0>        -0.0258 
     27 Cl4         7.0903   12.4178   -0.3271 Cl        1 <0>         0.0001 
     28 H1         17.6708   12.3831    1.9080 H         1 <0>         0.0762 
     29 H2         17.9548   12.3250    3.6484 H         1 <0>         0.0762 
     30 H3         17.0882   11.0537    2.8645 H         1 <0>         0.0762 
     31 H4         14.3436   11.4537    2.4118 H         1 <0>         0.1747 
     32 H5         15.9400   15.3275    5.9106 H         1 <0>         0.1643 
     33 H6         19.4993   17.5630    5.1947 H         1 <0>         0.1629 
     34 H7         18.3430   14.4994    2.4645 H         1 <0>         0.1643 
     35 H8         13.6317   16.3809    3.2645 H         1 <0>         0.0860 
     36 H9         13.2422   15.7954    4.8644 H         1 <0>         0.0860 
     37 H10        14.7611   16.5435    4.5192 H         1 <0>         0.0860 
     38 H11        11.9903   12.2117    1.4794 H         1 <0>         0.1204 
     39 H12        11.7558   11.2474    2.8878 H         1 <0>         0.1204 
     40 H13         7.5478   12.5774    4.5941 H         1 <0>         0.1141 
@<TRIPOS>BOND
     1    1    2 1    
     2    1   28 1    
     3    1   29 1    
     4    1   30 1    
     5    2    6 ar   
     6    2    3 ar   
     7    3    4 ar   
     8    3   31 1    
     9    4    5 ar   
    10    4   16 1    
    11    5    6 ar   
    12    5   15 1    
    13    6    7 1    
    14    7   12 ar   
    15    7    8 ar   
    16    8    9 ar   
    17    8   32 1    
    18    9   10 ar   
    19    9   14 1    
    20   10   11 ar   
    21   10   33 1    
    22   11   12 ar   
    23   11   13 1    
    24   12   34 1    
    25   15   35 1    
    26   15   36 1    
    27   15   37 1    
    28   16   17 2    
    29   16   18 1    
    30   18   19 1    
    31   18   38 1    
    32   18   39 1    
    33   19   25 ar   
    34   19   20 ar   
    35   20   21 2    
    36   20   22 ar   
    37   22   23 ar   
    38   22   27 1    
    39   23   24 ar   
    40   23   26 1    
    41   24   25 ar   
    42   24   40 1    
@<TRIPOS>SUBSTRUCTURE
     1 <0>         1 GROUP             0       ****    0 ROOT    
@<TRIPOS>MOLECULE
ZINC12070356
52   54    1
SMALL
USER_CHARGES


@<TRIPOS>ATOM
      1 C1          8.2391   14.2595    5.4649 C.3       1 <0>        -0.1290 
      2 C2          9.3334   13.7935    4.5221 C.ar      1 <0>        -0.0367 
      3 C3          9.0001   13.0323    3.4027 C.ar      1 <0>        -0.1492 
      4 C4          9.9973   12.5368    2.5625 C.ar      1 <0>        -0.0047 
      5 C5         11.3307   12.8261    2.8668 C.ar      1 <0>        -0.0400 
      6 C6         11.6946   13.5974    3.9578 C.ar      1 <0>         0.2306 
      7 C7         10.6754   14.0832    4.7866 C.ar      1 <0>        -0.1528 
      8 N1         13.0972   13.7370    4.0790 N.pl3     1 <0>        -0.3200 
      9 C8         13.8904   13.0305    3.1604 C.2       1 <0>         0.4392 
     10 N2         15.1523   12.8660    2.9468 N.am      1 <0>        -0.6746 
     11 C9         16.0592   13.8864    3.1551 C.2       1 <0>         0.6816 
     12 O1         15.7703   15.0537    2.9368 O.2       1 <0>        -0.5390 
     13 C10        17.5287   13.4707    3.3503 C.3       1 <0>        -0.1202 
     14 C11        18.4314   14.6399    3.7862 C.ar      1 <0>        -0.0223 
     15 C12        19.1861   15.3673    2.8650 C.ar      1 <0>        -0.1337 
     16 C13        20.0187   16.4073    3.2226 C.ar      1 <0>        -0.0307 
     17 C14        20.1229   16.7399    4.5551 C.ar      1 <0>        -0.1683 
     18 C15        19.3691   16.0355    5.4976 C.ar      1 <0>        -0.0307 
     19 C16        18.5195   15.0049    5.1220 C.ar      1 <0>        -0.1337 
     20 S1         21.1836   18.0942    5.0270 S.o2      1 <0>         0.8402 
     21 O2         21.6043   18.7982    3.8100 O.2       1 <0>        -0.5383 
     22 O3         20.4329   18.7994    6.0644 O.2       1 <0>        -0.5383 
     23 C17        22.7448   17.3128    5.7594 C.3       1 <0>        -0.1704 
     24 C18        23.6627   18.4281    6.3031 C.3       1 <0>        -0.1641 
     25 C19        22.3972   16.2279    6.7838 C.3       1 <0>        -0.1641 
     26 S2         12.7428   12.2533    2.0622 S.3       1 <0>        -0.1155 
     27 C20        13.6418   14.4899    5.2049 C.3       1 <0>        -0.0715 
     28 C21         9.6162   11.6636    1.3770 C.3       1 <0>        -0.1337 
     29 H1          7.5804   13.4274    5.7212 H         1 <0>         0.0745 
     30 H2          8.6416   14.6545    6.3988 H         1 <0>         0.0745 
     31 H3          7.6289   15.0230    4.9861 H         1 <0>         0.0745 
     32 H4          7.9630   12.8006    3.2029 H         1 <0>         0.1390 
     33 H5         10.8929   14.6548    5.6634 H         1 <0>         0.1377 
     34 H6         17.5884   12.6553    4.0648 H         1 <0>         0.1046 
     35 H7         17.9015   13.0645    2.4097 H         1 <0>         0.1046 
     36 H8         19.2317   15.0927    1.8367 H         1 <0>         0.1376 
     37 H9         20.5962   16.9166    2.4635 H         1 <0>         0.1508 
     38 H10        19.4395   16.2534    6.5296 H         1 <0>         0.1508 
     39 H11        17.9521   14.4811    5.8686 H         1 <0>         0.1376 
     40 H12        23.2293   16.8371    4.9109 H         1 <0>         0.1572 
     41 H13        23.2318   18.9582    7.1474 H         1 <0>         0.0780 
     42 H14        24.6253   18.0479    6.6396 H         1 <0>         0.0780 
     43 H15        23.8672   19.1710    5.5295 H         1 <0>         0.0780 
     44 H16        21.7085   16.5944    7.5434 H         1 <0>         0.0780 
     45 H17        21.9327   15.3619    6.3098 H         1 <0>         0.0780 
     46 H18        23.3023   15.8581    7.2623 H         1 <0>         0.0780 
     47 H19        13.5629   15.5586    5.0067 H         1 <0>         0.0811 
     48 H20        13.0917   14.2529    6.1133 H         1 <0>         0.0811 
     49 H21        14.6890   14.2694    5.4033 H         1 <0>         0.0811 
     50 H22         9.9230   12.1411    0.4442 H         1 <0>         0.0783 
     51 H23        10.1370   10.7063    1.4373 H         1 <0>         0.0783 
     52 H24         8.5451   11.4572    1.3322 H         1 <0>         0.0783 
@<TRIPOS>BOND
     1    1    2 1    
     2    1   29 1    
     3    1   30 1    
     4    1   31 1    
     5    2    7 ar   
     6    2    3 ar   
     7    3    4 ar   
     8    3   32 1    
     9    4    5 ar   
    10    4   28 1    
    11    5   26 1    
    12    5    6 ar   
    13    6    7 ar   
    14    6    8 1    
    15    7   33 1    
    16    8    9 1    
    17    8   27 1    
    18    9   10 2    BACKBONE|DICT|INTERRES
    19    9   26 1    
    20   10   11 am   BACKBONE|DICT|INTERRES
    21   11   12 2    
    22   11   13 1    
    23   13   14 1    
    24   13   34 1    
    25   13   35 1    
    26   14   19 ar   
    27   14   15 ar   
    28   15   16 ar   
    29   15   36 1    
    30   16   17 ar   
    31   16   37 1    
    32   17   18 ar   
    33   17   20 1    
    34   18   19 ar   
    35   18   38 1    
    36   19   39 1    
    37   20   21 2    
    38   20   22 2    
    39   20   23 1    
    40   23   24 1    
    41   23   25 1    
    42   23   40 1    
    43   24   41 1    
    44   24   42 1    
    45   24   43 1    
    46   25   44 1    
    47   25   45 1    
    48   25   46 1    
    49   27   47 1    
    50   27   48 1    
    51   27   49 1    
    52   28   50 1    
    53   28   51 1    
    54   28   52 1    
@<TRIPOS>SUBSTRUCTURE
     1 <0>         1 GROUP             0       ****    0 ROOT    
@<TRIPOS>MOLECULE
ZINC07516380
38   40    1
SMALL
USER_CHARGES


@<TRIPOS>ATOM
      1 C1          6.3245   14.2659    6.1926 C.3       1 <0>         0.0982 
      2 O1          7.6681   13.8517    6.0023 O.3       1 <0>        -0.3090 
      3 C2          8.3686   14.2496    4.9252 C.2       1 <0>         0.5023 
      4 O2          7.9890   15.0418    4.0579 O.2       1 <0>        -0.4302 
      5 C3          9.7817   13.6419    4.9258 C.3       1 <0>        -0.1346 
      6 N1         10.4297   13.3657    3.6204 N.pl3     1 <0>        -0.2215 
      7 C4         11.8407   13.3771    3.5868 C.ar      1 <0>         0.1956 
      8 C5         12.7389   14.0455    4.4354 C.ar      1 <0>        -0.1230 
      9 C6         14.1182   13.9536    4.2213 C.ar      1 <0>        -0.1024 
     10 C7         14.6155   13.1627    3.1812 C.ar      1 <0>         0.0908 
     11 C8         13.7302   12.4675    2.3671 C.ar      1 <0>        -0.0397 
     12 C9         12.3585   12.5910    2.5677 C.ar      1 <0>        -0.0075 
     13 S1         11.1028   11.8047    1.6679 S.3       1 <0>        -0.1514 
     14 C10         9.7950   12.6645    2.5798 C.2       1 <0>         0.4594 
     15 N2          8.5317   12.5806    2.3741 N.am      1 <0>        -0.7271 
     16 C11         7.9924   11.8254    1.3439 C.2       1 <0>         0.7032 
     17 O3          8.3450   11.9166    0.1645 O.2       1 <0>        -0.5322 
     18 C12         6.9146   10.9518    1.7524 C.2       1 <0>        -0.1078 
     19 C13         6.3248    9.9509    0.9806 C.2       1 <0>        -0.0795 
     20 C14         5.3173    9.2526    1.6562 C.2       1 <0>        -0.1213 
     21 C15         5.1012    9.7270    2.9416 C.2       1 <0>        -0.0397 
     22 S2          6.1399   11.0605    3.3222 S.3       1 <0>         0.1255 
     23 Cl1         3.9740    9.1489    4.1019 Cl        1 <0>        -0.0645 
     24 S3         16.3481   13.0015    2.8657 S.3       1 <0>        -0.3519 
     25 C16        17.1460   14.5559    3.3618 C.3       1 <0>        -0.0726 
     26 H1          6.2476   15.3526    6.2290 H         1 <0>         0.0506 
     27 H2          5.6864   13.9008    5.3878 H         1 <0>         0.0506 
     28 H3          5.9450   13.8653    7.1331 H         1 <0>         0.0506 
     29 H4          9.7889   12.7439    5.5418 H         1 <0>         0.1226 
     30 H5         10.3712   14.3594    5.4896 H         1 <0>         0.1226 
     31 H6         12.3995   14.6535    5.2549 H         1 <0>         0.1398 
     32 H7         14.7909   14.4870    4.8754 H         1 <0>         0.1394 
     33 H8         14.1078   11.8429    1.5707 H         1 <0>         0.1559 
     34 H9          6.6337    9.7184   -0.0290 H         1 <0>         0.1618 
     35 H10         4.7673    8.4284    1.2266 H         1 <0>         0.1635 
     36 H11        18.1996   14.5358    3.0807 H         1 <0>         0.0945 
     37 H12        16.6753   15.4031    2.8641 H         1 <0>         0.0945 
     38 H13        17.0889   14.7100    4.4392 H         1 <0>         0.0945 
@<TRIPOS>BOND
     1    1    2 1    
     2    1   26 1    
     3    1   27 1    
     4    1   28 1    
     5    2    3 1    
     6    3    4 2    
     7    3    5 1    
     8    5    6 1    
     9    5   29 1    
    10    5   30 1    
    11    6   14 1    
    12    6    7 1    
    13    7   12 ar   
    14    7    8 ar   
    15    8    9 ar   
    16    8   31 1    
    17    9   10 ar   
    18    9   32 1    
    19   10   11 ar   
    20   10   24 1    
    21   11   12 ar   
    22   11   33 1    
    23   12   13 1    
    24   13   14 1    
    25   14   15 2    BACKBONE|DICT|INTERRES
    26   15   16 am   BACKBONE|DICT|INTERRES
    27   16   17 2    
    28   16   18 1    
    29   18   22 1    
    30   18   19 2    
    31   19   20 1    
    32   19   34 1    
    33   20   21 2    
    34   20   35 1    
    35   21   22 1    
    36   21   23 1    
    37   24   25 1    
    38   25   36 1    
    39   25   37 1    
    40   25   38 1    
@<TRIPOS>SUBSTRUCTURE
     1 <0>         1 GROUP             0       ****    0 ROOT    
@<TRIPOS>MOLECULE
ZINC07571293
50   53    1
SMALL
USER_CHARGES


@<TRIPOS>ATOM
      1 C1         15.8245   12.8355    2.3237 C.3       1 <0>        -0.1268 
      2 C2         14.5008   13.1642    2.9931 C.ar      1 <0>        -0.0367 
      3 C3         13.3164   12.6539    2.4459 C.ar      1 <0>        -0.1426 
      4 C4         12.0721   12.9946    2.9901 C.ar      1 <0>         0.2087 
      5 C5         12.0366   13.6804    4.1892 C.ar      1 <0>        -0.0278 
      6 C6         13.2047   14.1525    4.7667 C.ar      1 <0>        -0.0575 
      7 C7         14.4293   13.9942    4.1232 C.ar      1 <0>        -0.0973 
      8 C8         15.6226   14.7462    4.6962 C.3       1 <0>        -0.1211 
      9 S1         10.4073   13.8539    4.7828 S.3       1 <0>        -0.1942 
     10 C9          9.7191   13.3212    3.1924 C.2       1 <0>         0.4180 
     11 N1          8.5118   13.4239    2.7813 N.am      1 <0>        -0.6390 
     12 C10         7.5193   13.9289    3.5938 C.2       1 <0>         0.7049 
     13 O1          7.5322   15.0911    4.0124 O.2       1 <0>        -0.5387 
     14 C11         6.5294   12.8496    4.0759 C.3       1 <0>         0.0910 
     15 H1          7.1094   12.0552    4.5506 H         1 <0>         0.0837 
     16 C12         5.6291   12.4046    2.8875 C.3       1 <0>         0.1267 
     17 O2          4.6981   11.4155    3.3345 O.3       1 <0>        -0.3465 
     18 C13         4.0671   11.7509    4.5163 C.ar      1 <0>         0.0749 
     19 C14         2.9119   11.0484    4.8521 C.ar      1 <0>        -0.1186 
     20 C15         2.2737   11.3160    6.0631 C.ar      1 <0>        -0.1310 
     21 C16         2.7967   12.2674    6.9438 C.ar      1 <0>        -0.1292 
     22 C17         3.9607   12.9656    6.6158 C.ar      1 <0>        -0.1186 
     23 C18         4.5949   12.7078    5.4019 C.ar      1 <0>         0.0808 
     24 O3          5.7119   13.4561    5.0878 O.3       1 <0>        -0.3315 
     25 N2         10.7838   12.7834    2.4726 N.pl3     1 <0>        -0.2523 
     26 C19        10.5897   12.2919    1.1027 C.3       1 <0>        -0.0162 
     27 C20         9.8395   10.9561    1.0157 C.3       1 <0>        -0.0542 
     28 S2          8.2715   11.0291    0.1005 S.3       1 <0>        -0.3576 
     29 C21         7.4539    9.5400    0.7369 C.3       1 <0>        -0.0722 
     30 H2         16.3580   13.7524    2.0766 H         1 <0>         0.0743 
     31 H3         16.4573   12.2596    2.9994 H         1 <0>         0.0743 
     32 H4         15.6876   12.2678    1.4011 H         1 <0>         0.0743 
     33 H5         13.3823   12.0443    1.5576 H         1 <0>         0.1437 
     34 H6         13.1663   14.6753    5.7010 H         1 <0>         0.1438 
     35 H7         15.5658   15.8048    4.4517 H         1 <0>         0.0712 
     36 H8         15.5972   14.6977    5.7855 H         1 <0>         0.0712 
     37 H9         16.5865   14.3502    4.3784 H         1 <0>         0.0712 
     38 H10         6.2170   11.9622    2.0832 H         1 <0>         0.0801 
     39 H11         5.0739   13.2560    2.4869 H         1 <0>         0.0801 
     40 H12         2.5258   10.2854    4.1938 H         1 <0>         0.1481 
     41 H13         1.3944   10.7549    6.3464 H         1 <0>         0.1360 
     42 H14         2.3117   12.4402    7.8935 H         1 <0>         0.1363 
     43 H15         4.3742   13.6889    7.3048 H         1 <0>         0.1486 
     44 H16        10.0518   13.0517    0.5321 H         1 <0>         0.1040 
     45 H17        11.5351   12.1934    0.5790 H         1 <0>         0.1040 
     46 H18        10.4865   10.2479    0.5085 H         1 <0>         0.0949 
     47 H19         9.6481   10.5525    2.0111 H         1 <0>         0.0949 
     48 H20         6.4757    9.4232    0.2713 H         1 <0>         0.0899 
     49 H21         8.0456    8.6490    0.5279 H         1 <0>         0.0899 
     50 H22         7.3072    9.6165    1.8150 H         1 <0>         0.0899 
@<TRIPOS>BOND
     1    1    2 1    
     2    1   30 1    
     3    1   31 1    
     4    1   32 1    
     5    2    7 ar   
     6    2    3 ar   
     7    3    4 ar   
     8    3   33 1    
     9    4   25 1    
    10    4    5 ar   
    11    5    6 ar   
    12    5    9 1    
    13    6    7 ar   
    14    6   34 1    
    15    7    8 1    
    16    8   35 1    
    17    8   36 1    
    18    8   37 1    
    19    9   10 1    
    20   10   11 2    BACKBONE|DICT|INTERRES
    21   10   25 1    
    22   11   12 am   BACKBONE|DICT|INTERRES
    23   12   13 2    
    24   12   14 1    
    25   14   15 1    
    26   14   24 1    
    27   14   16 1    
    28   16   17 1    
    29   16   38 1    
    30   16   39 1    
    31   17   18 1    
    32   18   23 ar   
    33   18   19 ar   
    34   19   20 ar   
    35   19   40 1    
    36   20   21 ar   
    37   20   41 1    
    38   21   22 ar   
    39   21   42 1    
    40   22   23 ar   
    41   22   43 1    
    42   23   24 1    
    43   25   26 1    
    44   26   27 1    
    45   26   44 1    
    46   26   45 1    
    47   27   28 1    
    48   27   46 1    
    49   27   47 1    
    50   28   29 1    
    51   29   48 1    
    52   29   49 1    
    53   29   50 1    
@<TRIPOS>SUBSTRUCTURE
     1 <0>         1 GROUP             0       ****    0 ROOT    
@<TRIPOS>MOLECULE
ZINC13671347
54   57    1
SMALL
USER_CHARGES


@<TRIPOS>ATOM
      1 C1          7.2800    7.7043    0.4755 C.3       1 <0>        -0.1236 
      2 C2          6.2297    7.9880    1.5404 C.ar      1 <0>        -0.0219 
      3 C3          5.7135    6.9035    2.2577 C.ar      1 <0>        -0.1264 
      4 C4          4.7693    7.1004    3.2636 C.ar      1 <0>        -0.1156 
      5 C5          4.3347    8.3881    3.5665 C.ar      1 <0>        -0.1316 
      6 C6          4.8358    9.4757    2.8546 C.ar      1 <0>        -0.1375 
      7 C7          5.7847    9.2905    1.8432 C.ar      1 <0>         0.0218 
      8 N1          6.2648   10.4298    1.1743 N.pl3     1 <0>        -0.2276 
      9 C8          7.5195   11.0253    1.5818 C.3       1 <0>        -0.0204 
     10 C9          7.3574   12.1554    2.6225 C.2       1 <0>         0.4587 
     11 O1          6.2196   12.4604    2.9954 O.2       1 <0>        -0.4977 
     12 N2          8.4527   12.8141    3.1051 N.am      1 <0>        -0.1847 
     13 C10         9.8371   12.6261    2.8557 C.ar      1 <0>         0.0214 
     14 C11        10.5201   11.8447    1.9115 C.ar      1 <0>        -0.1548 
     15 C12        11.9125   11.8538    1.8803 C.ar      1 <0>        -0.1035 
     16 C13        12.6382   12.6530    2.7607 C.ar      1 <0>        -0.1500 
     17 C14        11.9675   13.4528    3.6816 C.ar      1 <0>        -0.0872 
     18 C15        10.5722   13.4525    3.7090 C.ar      1 <0>        -0.1234 
     19 C16         9.6547   14.1033    4.6833 C.3       1 <0>        -0.0986 
     20 C17         8.2696   13.9229    4.0643 C.3       1 <0>         0.0303 
     21 H1          7.5478   13.6750    4.8457 H         1 <0>         0.1107 
     22 C18         7.7841   15.1934    3.3298 C.3       1 <0>        -0.1874 
     23 S1          5.4448   11.0144   -0.2999 S.o2      1 <0>         0.8685 
     24 O2          4.1979   10.2539   -0.4525 O.2       1 <0>        -0.4751 
     25 O3          5.4471   12.4803   -0.2302 O.2       1 <0>        -0.4751 
     26 C19         6.5299   10.5668   -1.6548 C.ar      1 <0>        -0.1967 
     27 C20         7.5695   11.4231   -2.0279 C.ar      1 <0>        -0.0301 
     28 C21         8.4337   11.0531   -3.0539 C.ar      1 <0>        -0.1492 
     29 C22         8.2639    9.8279   -3.6946 C.ar      1 <0>        -0.0760 
     30 C23         7.2328    8.9689   -3.3209 C.ar      1 <0>        -0.1492 
     31 C24         6.3628    9.3394   -2.2989 C.ar      1 <0>        -0.0301 
     32 H2          8.0310    7.0162    0.8630 H         1 <0>         0.0787 
     33 H3          6.8213    7.2300   -0.3910 H         1 <0>         0.0787 
     34 H4          7.8220    8.5944    0.1549 H         1 <0>         0.0787 
     35 H5          6.0510    5.8998    2.0424 H         1 <0>         0.1382 
     36 H6          4.3864    6.2578    3.8204 H         1 <0>         0.1325 
     37 H7          3.6136    8.5403    4.3572 H         1 <0>         0.1325 
     38 H8          4.4902   10.4699    3.0992 H         1 <0>         0.1277 
     39 H9          8.1829   10.3036    2.0578 H         1 <0>         0.0695 
     40 H10         8.0313   11.4773    0.7360 H         1 <0>         0.0695 
     41 H11        10.0374   11.1968    1.2016 H         1 <0>         0.1291 
     42 H12        12.4314   11.2236    1.1742 H         1 <0>         0.1346 
     43 H13        13.7181   12.6391    2.7336 H         1 <0>         0.1344 
     44 H14        12.5360   14.0509    4.3790 H         1 <0>         0.1353 
     45 H15         9.9247   15.1250    4.9151 H         1 <0>         0.0915 
     46 H16         9.6984   13.5645    5.6315 H         1 <0>         0.0915 
     47 H17         6.8313   15.0355    2.8263 H         1 <0>         0.0741 
     48 H18         7.6312   16.0074    4.0372 H         1 <0>         0.0741 
     49 H19         8.5066   15.5242    2.5836 H         1 <0>         0.0741 
     50 H20         7.7087   12.3745   -1.5337 H         1 <0>         0.1518 
     51 H21         9.2305   11.7186   -3.3545 H         1 <0>         0.1391 
     52 H22         8.9384    9.5437   -4.4887 H         1 <0>         0.1353 
     53 H23         7.1079    8.0206   -3.8223 H         1 <0>         0.1391 
     54 H24         5.5645    8.6743   -2.0054 H         1 <0>         0.1518 
@<TRIPOS>BOND
     1    1    2 1    
     2    1   32 1    
     3    1   33 1    
     4    1   34 1    
     5    2    7 ar   
     6    2    3 ar   
     7    3    4 ar   
     8    3   35 1    
     9    4    5 ar   
    10    4   36 1    
    11    5    6 ar   
    12    5   37 1    
    13    6    7 ar   
    14    6   38 1    
    15    7    8 1    
    16    8    9 1    
    17    8   23 1    
    18    9   10 1    
    19    9   39 1    
    20    9   40 1    
    21   10   11 2    
    22   10   12 am   BACKBONE|DICT|INTERRES
    23   12   20 1    
    24   12   13 1    
    25   13   18 ar   
    26   13   14 ar   
    27   14   15 ar   
    28   14   41 1    
    29   15   16 ar   
    30   15   42 1    
    31   16   17 ar   
    32   16   43 1    
    33   17   18 ar   
    34   17   44 1    
    35   18   19 1    
    36   19   20 1    
    37   19   45 1    
    38   19   46 1    
    39   20   21 1    
    40   20   22 1    
    41   22   47 1    
    42   22   48 1    
    43   22   49 1    
    44   23   24 2    
    45   23   25 2    
    46   23   26 1    
    47   26   31 ar   
    48   26   27 ar   
    49   27   28 ar   
    50   27   50 1    
    51   28   29 ar   
    52   28   51 1    
    53   29   30 ar   
    54   29   52 1    
    55   30   31 ar   
    56   30   53 1    
    57   31   54 1    
@<TRIPOS>SUBSTRUCTURE
     1 <0>         1 GROUP             0       ****    0 ROOT    
@<TRIPOS>MOLECULE
ZINC14058646
43   45    1
SMALL
USER_CHARGES


@<TRIPOS>ATOM
      1 C1         14.8093   11.7336    1.6723 C.3       1 <0>        -0.1926 
      2 C2         15.5246   13.0538    1.8467 C.3       1 <0>        -0.0365 
      3 N1         15.3299   13.7050    3.1457 N.pl3     1 <0>        -0.2436 
      4 C3         16.3685   14.4685    3.7207 C.ar      1 <0>         0.2334 
      5 C4         15.8387   15.4536    4.5488 C.ar      1 <0>        -0.0191 
      6 C5         16.6553   16.3263    5.2644 C.ar      1 <0>        -0.0513 
      7 C6         18.0326   16.2809    5.0721 C.ar      1 <0>         0.0534 
      8 C7         18.5919   15.2635    4.3059 C.ar      1 <0>        -0.0783 
      9 C8         17.7761   14.3291    3.6654 C.ar      1 <0>         0.0635 
     10 Cl1        18.5991   13.0409    2.8653 Cl        1 <0>        -0.1309 
     11 Cl2        19.0393   17.5220    5.7157 Cl        1 <0>        -0.1296 
     12 S1         14.0984   15.4751    4.4645 S.3       1 <0>        -0.1626 
     13 C9         14.0449   13.8827    3.6663 C.2       1 <0>         0.4224 
     14 N2         13.0217   13.1347    3.4869 N.am      1 <0>        -0.6667 
     15 C10        11.7465   13.4537    3.8979 C.2       1 <0>         0.7500 
     16 O1         11.4426   13.8855    5.0087 O.2       1 <0>        -0.5213 
     17 C11        10.7045   13.0536    2.8710 C.3       1 <0>        -0.3780 
     18 S2          8.9341   13.6142    3.1539 S.o2      1 <0>         0.8739 
     19 O2          8.8307   15.0497    2.8656 O.2       1 <0>        -0.5060 
     20 O3          8.4574   13.0698    4.4295 O.2       1 <0>        -0.5060 
     21 C12         8.0794   12.7476    1.8425 C.ar      1 <0>        -0.1852 
     22 C13         7.5330   11.4885    2.0904 C.ar      1 <0>        -0.0275 
     23 C14         6.9235   10.7817    1.0587 C.ar      1 <0>        -0.1471 
     24 C15         6.8557   11.3376   -0.2209 C.ar      1 <0>        -0.0227 
     25 C16         7.3989   12.5999   -0.4674 C.ar      1 <0>        -0.1471 
     26 C17         8.0069   13.3081    0.5659 C.ar      1 <0>        -0.0275 
     27 C18         6.2096   10.5630   -1.3545 C.3       1 <0>        -0.1380 
     28 H1         15.2290   11.1464    0.8643 H         1 <0>         0.0764 
     29 H2         14.8590   11.1571    2.5947 H         1 <0>         0.0764 
     30 H3         13.7527   11.8614    1.4438 H         1 <0>         0.0764 
     31 H4         15.2253   13.7276    1.0487 H         1 <0>         0.0942 
     32 H5         16.5597   12.8292    1.6645 H         1 <0>         0.0942 
     33 H6         16.2215   17.0996    5.8799 H         1 <0>         0.1609 
     34 H7         19.6669   15.1989    4.2036 H         1 <0>         0.1655 
     35 H8         10.6688   11.9653    2.8555 H         1 <0>         0.1785 
     36 H9         10.9977   13.3846    1.8787 H         1 <0>         0.1785 
     37 H10         7.5921   11.0542    3.0791 H         1 <0>         0.1522 
     38 H11         6.5146    9.8021    1.2586 H         1 <0>         0.1412 
     39 H12         7.3572   13.0289   -1.4586 H         1 <0>         0.1412 
     40 H13         8.4303   14.2816    0.3698 H         1 <0>         0.1522 
     41 H14         5.2290   10.9775   -1.5885 H         1 <0>         0.0776 
     42 H15         6.8239   10.6254   -2.2534 H         1 <0>         0.0776 
     43 H16         6.0995    9.5058   -1.1116 H         1 <0>         0.0776 
@<TRIPOS>BOND
     1    1    2 1    
     2    1   28 1    
     3    1   29 1    
     4    1   30 1    
     5    2    3 1    
     6    2   31 1    
     7    2   32 1    
     8    3   13 1    
     9    3    4 1    
    10    4    9 ar   
    11    4    5 ar   
    12    5    6 ar   
    13    5   12 1    
    14    6    7 ar   
    15    6   33 1    
    16    7    8 ar   
    17    7   11 1    
    18    8    9 ar   
    19    8   34 1    
    20    9   10 1    
    21   12   13 1    
    22   13   14 2    BACKBONE|DICT|INTERRES
    23   14   15 am   BACKBONE|DICT|INTERRES
    24   15   16 2    
    25   15   17 1    
    26   17   18 1    
    27   17   35 1    
    28   17   36 1    
    29   18   19 2    
    30   18   20 2    
    31   18   21 1    
    32   21   26 ar   
    33   21   22 ar   
    34   22   23 ar   
    35   22   37 1    
    36   23   24 ar   
    37   23   38 1    
    38   24   25 ar   
    39   24   27 1    
    40   25   26 ar   
    41   25   39 1    
    42   26   40 1    
    43   27   41 1    
    44   27   42 1    
    45   27   43 1    
@<TRIPOS>SUBSTRUCTURE
     1 <0>         1 GROUP             0       ****    0 ROOT    
@<TRIPOS>MOLECULE
ZINC01105137
40   43    1
SMALL
USER_CHARGES


@<TRIPOS>ATOM
      1 C1          9.8378    8.5990   -4.7035 C.3       1 <0>        -0.1231 
      2 C2          9.2328    9.2867   -3.4946 C.ar      1 <0>        -0.1125 
      3 C3          8.9615   10.6532   -3.5432 C.ar      1 <0>        -0.0947 
      4 C4          8.4326   11.2969   -2.4295 C.ar      1 <0>        -0.1740 
      5 C5          8.1805   10.5881   -1.2561 C.ar      1 <0>         0.1532 
      6 C6          8.4308    9.2090   -1.2223 C.ar      1 <0>        -0.1740 
      7 C7          8.9568    8.5611   -2.3361 C.ar      1 <0>        -0.0947 
      8 O1          7.7046   11.3187   -0.1873 O.3       1 <0>        -0.3646 
      9 C8          7.4836   10.6718    1.0636 C.3       1 <0>         0.1612 
     10 C9          7.0190   11.7195    2.0504 C.ar      1 <0>         0.0279 
     11 N1          5.7661   11.9291    2.3816 N.2       1 <0>        -0.1479 
     12 N2          5.7442   13.0139    3.2538 N.2       1 <0>        -0.0959 
     13 C10         6.9857   13.3961    3.4072 C.ar      1 <0>        -0.0213 
     14 N3          7.8498   12.6257    2.6701 N.pl3     1 <0>         0.3421 
     15 N4          9.2155   12.7593    2.5348 N.2       1 <0>        -0.3630 
     16 C11         9.8980   13.2578    3.5081 C.2       1 <0>         0.1639 
     17 C12         9.1800   13.7362    4.8114 C.3       1 <0>        -0.1009 
     18 S1          7.6252   14.6533    4.4418 S.3       1 <0>        -0.1984 
     19 C13        11.3918   13.2289    3.4557 C.ar      1 <0>        -0.0303 
     20 C14        12.1937   13.8902    4.4028 C.ar      1 <0>        -0.0920 
     21 C15        13.5848   13.8160    4.3515 C.ar      1 <0>        -0.1057 
     22 C16        14.1994   13.0710    3.3517 C.ar      1 <0>         0.0537 
     23 C17        13.4292   12.4118    2.4054 C.ar      1 <0>        -0.1057 
     24 C18        12.0415   12.4834    2.4561 C.ar      1 <0>        -0.0920 
     25 Br1        16.0971   12.9479    3.2632 Br        1 <0>        -0.1407 
     26 H1         10.8635    8.9374   -4.8528 H         1 <0>         0.0683 
     27 H2          9.8319    7.5132   -4.6026 H         1 <0>         0.0683 
     28 H3          9.2734    8.8523   -5.6025 H         1 <0>         0.0683 
     29 H4          9.1922   11.2325   -4.4271 H         1 <0>         0.1346 
     30 H5          8.2601   12.3628   -2.4672 H         1 <0>         0.1376 
     31 H6          8.2495    8.6263   -0.3327 H         1 <0>         0.1376 
     32 H7          9.1647    7.5022   -2.2824 H         1 <0>         0.1346 
     33 H8          6.7199    9.8997    0.9549 H         1 <0>         0.0621 
     34 H9          8.4030   10.2052    1.4243 H         1 <0>         0.0621 
     35 H10         8.9138   12.8737    5.4220 H         1 <0>         0.1271 
     36 H11         9.7700   14.4101    5.4217 H         1 <0>         0.1271 
     37 H12        11.7796   14.4862    5.1943 H         1 <0>         0.1478 
     38 H13        14.1830   14.3340    5.0869 H         1 <0>         0.1532 
     39 H14        13.9095   11.8474    1.6209 H         1 <0>         0.1532 
     40 H15        11.4849   11.9423    1.7025 H         1 <0>         0.1478 
@<TRIPOS>BOND
     1    1    2 1    
     2    1   26 1    
     3    1   27 1    
     4    1   28 1    
     5    2    7 ar   
     6    2    3 ar   
     7    3    4 ar   
     8    3   29 1    
     9    4    5 ar   
    10    4   30 1    
    11    5    6 ar   
    12    5    8 1    
    13    6    7 ar   
    14    6   31 1    
    15    7   32 1    
    16    8    9 1    
    17    9   10 1    
    18    9   33 1    
    19    9   34 1    
    20   10   14 ar   
    21   10   11 ar   
    22   11   12 ar   
    23   12   13 ar   
    24   13   18 1    
    25   13   14 ar   
    26   14   15 1    
    27   15   16 2    
    28   16   17 1    
    29   16   19 1    
    30   17   18 1    
    31   17   35 1    
    32   17   36 1    
    33   19   24 ar   
    34   19   20 ar   
    35   20   21 ar   
    36   20   37 1    
    37   21   22 ar   
    38   21   38 1    
    39   22   23 ar   
    40   22   25 1    
    41   23   24 ar   
    42   23   39 1    
    43   24   40 1    
@<TRIPOS>SUBSTRUCTURE
     1 <0>         1 GROUP             0       ****    0 ROOT    
@<TRIPOS>MOLECULE
ZINC16022896
54   57    1
SMALL
USER_CHARGES


@<TRIPOS>ATOM
      1 C1         14.2566   12.9679    3.4727 C.3       1 <0>        -0.1284 
      2 C2         12.7615   13.0458    3.2626 C.ar      1 <0>        -0.0771 
      3 C3         12.1463   12.2459    2.3034 C.ar      1 <0>        -0.1187 
      4 C4         10.7622   12.2604    2.1682 C.ar      1 <0>        -0.1136 
      5 C5          9.9744   13.0994    2.9738 C.ar      1 <0>         0.0197 
      6 C6         10.6188   13.9336    3.8980 C.ar      1 <0>        -0.1136 
      7 C7         11.9979   13.8904    4.0624 C.ar      1 <0>        -0.1187 
      8 N1          8.5638   13.1394    2.8521 N.pl3     1 <0>        -0.1842 
      9 C8          7.9573   12.5937    1.6355 C.3       1 <0>        -0.1739 
     10 S1          7.4678   13.1555    4.2804 S.o2      1 <0>         0.8634 
     11 O1          8.1765   13.6945    5.4468 O.2       1 <0>        -0.4932 
     12 O2          6.8132   11.8448    4.3527 O.2       1 <0>        -0.4932 
     13 C9          6.2051   14.3505    3.8755 C.ar      1 <0>        -0.2009 
     14 C10         4.8872   14.1506    4.2879 C.ar      1 <0>        -0.0138 
     15 C11         3.9150   15.1030    3.9848 C.ar      1 <0>        -0.1511 
     16 C12         4.2568   16.2523    3.2690 C.ar      1 <0>        -0.0517 
     17 C13         5.5787   16.4591    2.8464 C.ar      1 <0>        -0.1645 
     18 C14         6.5533   15.5132    3.1843 C.ar      1 <0>        -0.0016 
     19 C15         5.9813   17.7027    2.0898 C.2       1 <0>         0.5256 
     20 O3          6.9933   18.2977    2.4615 O.2       1 <0>        -0.5087 
     21 N2          5.1966   18.1281    1.0571 N.am      1 <0>        -0.1672 
     22 C16         5.3304   19.3515    0.3585 C.ar      1 <0>         0.0101 
     23 C17         5.9975   20.5318    0.7219 C.ar      1 <0>        -0.1224 
     24 C18         5.9218   21.6551   -0.1041 C.ar      1 <0>        -0.1096 
     25 C19         5.1605   21.6189   -1.2735 C.ar      1 <0>        -0.1475 
     26 C20         4.4453   20.4670   -1.6033 C.ar      1 <0>        -0.0939 
     27 C21         4.5300   19.3393   -0.7834 C.ar      1 <0>        -0.1308 
     28 C22         3.7075   18.0876   -0.7979 C.3       1 <0>        -0.0944 
     29 C23         4.4047   17.1858    0.2241 C.3       1 <0>         0.0266 
     30 H1          3.6665   16.6208    0.7927 H         1 <0>         0.0945 
     31 C24         5.3165   16.1602   -0.4991 C.3       1 <0>        -0.1909 
     32 H2         14.7650   13.7912    2.9706 H         1 <0>         0.0714 
     33 H3         14.4544   13.0287    4.5408 H         1 <0>         0.0714 
     34 H4         14.6653   12.0180    3.1241 H         1 <0>         0.0714 
     35 H5         12.7321   11.5836    1.6811 H         1 <0>         0.1375 
     36 H6         10.3195   11.5986    1.4388 H         1 <0>         0.1432 
     37 H7         10.0711   14.6426    4.4972 H         1 <0>         0.1432 
     38 H8         12.4696   14.5261    4.7993 H         1 <0>         0.1375 
     39 H9          8.4550   12.9739    0.7418 H         1 <0>         0.0941 
     40 H10         8.0128   11.5036    1.6320 H         1 <0>         0.0941 
     41 H11         6.9044   12.8667    1.5659 H         1 <0>         0.0941 
     42 H12         4.6197   13.2645    4.8484 H         1 <0>         0.1557 
     43 H13         2.8988   14.9556    4.3178 H         1 <0>         0.1442 
     44 H14         3.4886   16.9839    3.0591 H         1 <0>         0.1435 
     45 H15         7.5793   15.6645    2.8810 H         1 <0>         0.1573 
     46 H16         6.5811   20.5909    1.6274 H         1 <0>         0.1551 
     47 H17         6.4380   22.5625    0.1735 H         1 <0>         0.1364 
     48 H18         5.0907   22.4965   -1.9004 H         1 <0>         0.1327 
     49 H19         3.8037   20.4721   -2.4717 H         1 <0>         0.1324 
     50 H20         2.7012   18.3206   -0.4448 H         1 <0>         0.0902 
     51 H21         3.5783   17.6262   -1.7803 H         1 <0>         0.0902 
     52 H22         5.8652   15.5213    0.1950 H         1 <0>         0.0759 
     53 H23         4.7231   15.4999   -1.1352 H         1 <0>         0.0759 
     54 H24         6.0311   16.6568   -1.1555 H         1 <0>         0.0759 
@<TRIPOS>BOND
     1    1    2 1    
     2    1   32 1    
     3    1   33 1    
     4    1   34 1    
     5    2    7 ar   
     6    2    3 ar   
     7    3    4 ar   
     8    3   35 1    
     9    4    5 ar   
    10    4   36 1    
    11    5    6 ar   
    12    5    8 1    
    13    6    7 ar   
    14    6   37 1    
    15    7   38 1    
    16    8    9 1    
    17    8   10 1    
    18    9   39 1    
    19    9   40 1    
    20    9   41 1    
    21   10   11 2    
    22   10   12 2    
    23   10   13 1    
    24   13   18 ar   
    25   13   14 ar   
    26   14   15 ar   
    27   14   42 1    
    28   15   16 ar   
    29   15   43 1    
    30   16   17 ar   
    31   16   44 1    
    32   17   18 ar   
    33   17   19 1    
    34   18   45 1    
    35   19   20 2    
    36   19   21 am   BACKBONE|DICT|INTERRES
    37   21   29 1    
    38   21   22 1    
    39   22   27 ar   
    40   22   23 ar   
    41   23   24 ar   
    42   23   46 1    
    43   24   25 ar   
    44   24   47 1    
    45   25   26 ar   
    46   25   48 1    
    47   26   27 ar   
    48   26   49 1    
    49   27   28 1    
    50   28   29 1    
    51   28   50 1    
    52   28   51 1    
    53   29   30 1    
    54   29   31 1    
    55   31   52 1    
    56   31   53 1    
    57   31   54 1    
@<TRIPOS>SUBSTRUCTURE
     1 <0>         1 GROUP             0       ****    0 ROOT    
@<TRIPOS>MOLECULE
ZINC03516811
46   50    1
SMALL
USER_CHARGES


@<TRIPOS>ATOM
      1 C1         10.8225   12.3109    1.0849 C.3       1 <0>        -0.2117 
      2 C2         10.3128   11.6936    2.3844 C.3       1 <0>        -0.0484 
      3 N1         10.0397   12.7215    3.3788 N.pl3     1 <0>         0.0915 
      4 C3         10.9380   13.5290    4.0642 C.ar      1 <0>         0.0120 
      5 N2         10.2809   14.2976    4.8958 N.2       1 <0>        -0.1505 
      6 N3          8.9273   14.0221    4.7756 N.2       1 <0>        -0.1678 
      7 C4          8.8033   13.0879    3.8700 C.ar      1 <0>         0.0337 
      8 S1          7.2547   12.4306    3.3584 S.3       1 <0>        -0.2340 
      9 C5          6.7123   13.8765    2.3954 C.3       1 <0>        -0.0084 
     10 C6          5.2971   13.7655    1.8372 C.2       1 <0>         0.1031 
     11 C7          4.2761   14.0618    2.6723 C.2       1 <0>        -0.2402 
     12 C8          2.9061   14.2530    2.2126 C.2       1 <0>         0.4580 
     13 O1          1.9137   14.4625    2.9051 O.2       1 <0>        -0.3988 
     14 O2          2.7165   14.2593    0.8528 O.3       1 <0>        -0.2139 
     15 C9          3.7227   13.9079   -0.0368 C.ar      1 <0>         0.1306 
     16 C10         5.0340   13.5799    0.3689 C.ar      1 <0>        -0.1596 
     17 C11         5.9381   13.0591   -0.6393 C.ar      1 <0>         0.0249 
     18 C12         7.2201   12.4884   -0.3720 C.ar      1 <0>        -0.1296 
     19 C13         8.0585   12.0639   -1.3974 C.ar      1 <0>        -0.1053 
     20 C14         7.6653   12.1652   -2.7216 C.ar      1 <0>        -0.1302 
     21 C15         6.4065   12.6510   -3.0382 C.ar      1 <0>        -0.1076 
     22 C16         5.5227   13.0808   -2.0159 C.ar      1 <0>        -0.0647 
     23 C17         4.2238   13.5155   -2.3545 C.ar      1 <0>        -0.0669 
     24 C18         3.3335   13.8968   -1.3681 C.ar      1 <0>        -0.1504 
     25 C19        12.4124   13.6062    3.9400 C.2       1 <0>        -0.1188 
     26 C20        13.2226   14.6583    4.3689 C.2       1 <0>        -0.0838 
     27 C21        14.5797   14.4933    4.0882 C.2       1 <0>        -0.1343 
     28 C22        14.8468   13.2829    3.4792 C.2       1 <0>        -0.2298 
     29 S2         13.4113   12.3462    3.2649 S.3       1 <0>         0.0761 
     30 H1         10.0288   12.8180    0.5374 H         1 <0>         0.0775 
     31 H2         11.6182   13.0354    1.2419 H         1 <0>         0.0775 
     32 H3         11.2264   11.5189    0.4639 H         1 <0>         0.0775 
     33 H4         11.0413   11.0086    2.8121 H         1 <0>         0.0989 
     34 H5          9.4193   11.0994    2.1900 H         1 <0>         0.0989 
     35 H6          7.4379   14.1865    1.6457 H         1 <0>         0.1149 
     36 H7          6.7270   14.7164    3.0916 H         1 <0>         0.1149 
     37 H8          4.4873   14.2396    3.7163 H         1 <0>         0.1693 
     38 H9          7.5657   12.3339    0.6322 H         1 <0>         0.1471 
     39 H10         9.0325   11.6520   -1.1742 H         1 <0>         0.1411 
     40 H11         8.3420   11.8526   -3.5051 H         1 <0>         0.1351 
     41 H12         6.0977   12.7013   -4.0727 H         1 <0>         0.1349 
     42 H13         3.9131   13.5189   -3.3904 H         1 <0>         0.1429 
     43 H14         2.3272   14.1809   -1.6391 H         1 <0>         0.1579 
     44 H15        12.8349   15.5361    4.8636 H         1 <0>         0.1590 
     45 H16        15.3355   15.2233    4.3357 H         1 <0>         0.1583 
     46 H17        15.8041   12.8915    3.1695 H         1 <0>         0.2192 
@<TRIPOS>BOND
     1    1    2 1    
     2    1   30 1    
     3    1   31 1    
     4    1   32 1    
     5    2    3 1    
     6    2   33 1    
     7    2   34 1    
     8    3    7 ar   
     9    3    4 ar   
    10    4    5 ar   
    11    4   25 1    
    12    5    6 ar   
    13    6    7 ar   
    14    7    8 1    
    15    8    9 1    
    16    9   10 1    
    17    9   35 1    
    18    9   36 1    
    19   10   16 1    
    20   10   11 2    
    21   11   12 1    
    22   11   37 1    
    23   12   13 2    
    24   12   14 1    
    25   14   15 1    
    26   15   24 ar   
    27   15   16 ar   
    28   16   17 ar   
    29   17   22 ar   
    30   17   18 ar   
    31   18   19 ar   
    32   18   38 1    
    33   19   20 ar   
    34   19   39 1    
    35   20   21 ar   
    36   20   40 1    
    37   21   22 ar   
    38   21   41 1    
    39   22   23 ar   
    40   23   24 ar   
    41   23   42 1    
    42   24   43 1    
    43   25   29 1    
    44   25   26 2    
    45   26   27 1    
    46   26   44 1    
    47   27   28 2    
    48   27   45 1    
    49   28   29 1    
    50   28   46 1    
@<TRIPOS>SUBSTRUCTURE
     1 <0>         1 GROUP             0       ****    0 ROOT    
@<TRIPOS>MOLECULE
ZINC16218665
47   51    1
SMALL
USER_CHARGES


@<TRIPOS>ATOM
      1 C1         13.6294   13.4644    4.3611 C.ar      1 <0>        -0.2752 
      2 C2         13.8939   12.7652    3.1830 C.ar      1 <0>        -0.0318 
      3 C3         12.8410   12.4072    2.3403 C.ar      1 <0>        -0.4183 
      4 C4         11.5357   12.7570    2.6690 C.ar      1 <0>         0.8027 
      5 C5         11.2759   13.4537    3.8469 C.ar      1 <0>        -0.5079 
      6 C6         12.3216   13.7956    4.7078 C.ar      1 <0>         0.0334 
      7 C7          9.8385   13.7171    4.2221 C.ar      1 <0>         0.7700 
      8 O1          9.5315   14.2536    5.2921 O.2       1 <0>        -0.5696 
      9 N1          8.9334   13.2534    3.2801 N.pl3     1 <0>        -0.1304 
     10 C8          9.2795   12.6553    2.0691 C.ar      1 <0>         0.4795 
     11 N2         10.5111   12.4127    1.7884 N.2       1 <0>        -0.8656 
     12 S1          8.0320   12.2509    0.7992 S.3       1 <0>        -0.1890 
     13 C9          9.0672   11.6882   -0.5912 C.3       1 <0>         0.0493 
     14 C10         8.2412   11.1025   -1.7288 C.ar      1 <0>        -0.0773 
     15 C11         8.0236   11.8542   -2.8879 C.ar      1 <0>        -0.1211 
     16 C12         7.3046   11.3163   -3.9534 C.ar      1 <0>         0.1872 
     17 C13         6.7897   10.0231   -3.8666 C.ar      1 <0>        -0.1181 
     18 C14         6.9820    9.2562   -2.7139 C.ar      1 <0>        -0.1658 
     19 C15         7.7271    9.7999   -1.6576 C.ar      1 <0>         0.1499 
     20 O2          8.0306    9.0509   -0.5358 O.3       1 <0>        -0.2713 
     21 C16         7.1670    7.9686   -0.3267 C.3       1 <0>        -0.0414 
     22 O3          7.1290    7.1578   -1.4715 O.3       1 <0>        -0.3410 
     23 C17         6.4607    7.8353   -2.5429 C.3       1 <0>         0.1951 
     24 F1          7.1074   12.0456   -5.0752 F         1 <0>        -0.2140 
     25 C18         7.5685   13.4347    3.6070 C.ar      1 <0>        -0.1281 
     26 C19         6.8387   12.3649    4.1494 C.ar      1 <0>        -0.0751 
     27 C20         5.4970   12.5374    4.4914 C.ar      1 <0>        -0.1414 
     28 C21         4.8757   13.7715    4.2858 C.ar      1 <0>        -0.0900 
     29 C22         5.5952   14.8356    3.7371 C.ar      1 <0>        -0.1658 
     30 C23         6.9376   14.6731    3.3947 C.ar      1 <0>         0.2043 
     31 F2          7.6213   15.7146    2.8592 F         1 <0>        -0.1708 
     32 H1         14.4321   13.7314    5.0289 H         1 <0>         0.1651 
     33 H2         14.9070   12.4910    2.9288 H         1 <0>         0.1494 
     34 H3         13.0339   11.8534    1.4327 H         1 <0>         0.1931 
     35 H4         12.1328   14.2536    5.6640 H         1 <0>         0.1380 
     36 H5          9.6540   10.8675   -0.1794 H         1 <0>         0.1166 
     37 H6          9.7853   12.4299   -0.9432 H         1 <0>         0.1166 
     38 H7          8.4316   12.8516   -2.9820 H         1 <0>         0.1572 
     39 H8          6.2348    9.6208   -4.7001 H         1 <0>         0.1497 
     40 H9          6.1750    8.3187   -0.0274 H         1 <0>         0.1692 
     41 H10         7.6238    7.3745    0.4663 H         1 <0>         0.1692 
     42 H11         6.5716    7.2632   -3.4640 H         1 <0>         0.0664 
     43 H12         5.3945    7.8782   -2.3155 H         1 <0>         0.0664 
     44 H13         7.3105   11.4041    4.3167 H         1 <0>         0.1485 
     45 H14         4.9393   11.7159    4.9218 H         1 <0>         0.1413 
     46 H15         3.8375   13.9011    4.5538 H         1 <0>         0.1399 
     47 H16         5.1099   15.7878    3.5768 H         1 <0>         0.1510 
@<TRIPOS>BOND
     1    1    6 ar   
     2    1    2 ar   
     3    1   32 1    
     4    2    3 ar   
     5    2   33 1    
     6    3    4 ar   
     7    3   34 1    
     8    4   11 ar   
     9    4    5 ar   
    10    5    6 ar   
    11    5    7 ar   
    12    6   35 1    
    13    7    8 2    
    14    7    9 ar   
    15    9   10 ar   
    16    9   25 1    
    17   10   11 ar   
    18   10   12 1    
    19   12   13 1    
    20   13   14 1    
    21   13   36 1    
    22   13   37 1    
    23   14   19 ar   
    24   14   15 ar   
    25   15   16 ar   
    26   15   38 1    
    27   16   17 ar   
    28   16   24 1    
    29   17   18 ar   
    30   17   39 1    
    31   18   23 1    
    32   18   19 ar   
    33   19   20 1    
    34   20   21 1    
    35   21   22 1    
    36   21   40 1    
    37   21   41 1    
    38   22   23 1    
    39   23   42 1    
    40   23   43 1    
    41   25   30 ar   
    42   25   26 ar   
    43   26   27 ar   
    44   26   44 1    
    45   27   28 ar   
    46   27   45 1    
    47   28   29 ar   
    48   28   46 1    
    49   29   30 ar   
    50   29   47 1    
    51   30   31 1    
@<TRIPOS>SUBSTRUCTURE
     1 <0>         1 GROUP             0       ****    0 ROOT    
@<TRIPOS>MOLECULE
ZINC17987580
43   46    1
SMALL
USER_CHARGES


@<TRIPOS>ATOM
      1 C1         10.2253   11.4538    1.7141 C.ar      1 <0>        -0.1126 
      2 C2         11.5290   11.8615    1.9942 C.ar      1 <0>        -0.1020 
      3 C3         11.8048   12.9962    2.7894 C.ar      1 <0>         0.0058 
      4 C4         10.6786   13.6847    3.2952 C.ar      1 <0>        -0.1042 
      5 C5          9.3694   13.2739    3.0365 C.ar      1 <0>         0.0708 
      6 C6          9.1446   12.1591    2.2324 C.ar      1 <0>        -0.1140 
      7 O1          8.3206   14.0123    3.5387 O.3       1 <0>        -0.2293 
      8 C7          7.7620   13.6763    4.7453 C.2       1 <0>         0.4146 
      9 O2          8.0373   12.6539    5.3777 O.2       1 <0>        -0.4243 
     10 C8          6.8313   14.7270    5.2707 C.ar      1 <0>        -0.0500 
     11 C9          6.3932   15.7926    4.4680 C.ar      1 <0>        -0.0700 
     12 C10         5.5702   16.7808    5.0003 C.ar      1 <0>        -0.1200 
     13 C11         5.1772   16.7110    6.3337 C.ar      1 <0>         0.0649 
     14 C12         5.5816   15.6471    7.1350 C.ar      1 <0>        -0.1200 
     15 C13         6.4024   14.6555    6.6051 C.ar      1 <0>        -0.0700 
     16 Br1         4.0826   18.0858    7.0638 Br        1 <0>        -0.1454 
     17 N1         13.1615   13.4127    3.0846 N.am      1 <0>        -0.0135 
     18 C14        13.5234   14.5070    3.8458 C.2       1 <0>         0.3812 
     19 O3         12.8275   15.3000    4.4645 O.2       1 <0>        -0.4810 
     20 C15        15.0208   14.6551    3.7500 C.3       1 <0>        -0.0704 
     21 H1         15.2164   15.2695    2.8656 H         1 <0>         0.0887 
     22 C16        15.8190   15.3867    4.8590 C.3       1 <0>        -0.1005 
     23 C17        17.3069   15.1192    4.6084 C.2       1 <0>        -0.1794 
     24 C18        17.7774   14.1272    3.8158 C.2       1 <0>        -0.1794 
     25 C19        16.8983   13.0741    3.1272 C.3       1 <0>        -0.1005 
     26 C20        15.4094   13.2437    3.5404 C.3       1 <0>        -0.0704 
     27 H2         15.2323   12.6038    4.4126 H         1 <0>         0.0887 
     28 C21        14.3082   12.8040    2.6202 C.2       1 <0>         0.3812 
     29 O4         14.4919   12.0596    1.6646 O.2       1 <0>        -0.4810 
     30 H3         10.0557   10.5770    1.1048 H         1 <0>         0.1442 
     31 H4         12.3075   11.2533    1.5652 H         1 <0>         0.1430 
     32 H5         10.7613   14.5604    3.9125 H         1 <0>         0.1501 
     33 H6          8.1366   11.8332    2.0205 H         1 <0>         0.1453 
     34 H7          6.6868   15.8724    3.4307 H         1 <0>         0.1574 
     35 H8          5.2437   17.6048    4.3832 H         1 <0>         0.1523 
     36 H9          5.2628   15.5877    8.1657 H         1 <0>         0.1523 
     37 H10         6.7054   13.8388    7.2496 H         1 <0>         0.1574 
     38 H11        15.5807   16.4504    4.8707 H         1 <0>         0.0918 
     39 H12        15.5591   15.0229    5.8535 H         1 <0>         0.0918 
     40 H13        18.0312   15.7766    5.0683 H         1 <0>         0.1364 
     41 H14        18.8490   14.0555    3.6903 H         1 <0>         0.1364 
     42 H15        17.2505   12.0518    3.2692 H         1 <0>         0.0918 
     43 H16        17.0034   13.2857    2.0653 H         1 <0>         0.0918 
@<TRIPOS>BOND
     1    1    6 ar   
     2    1    2 ar   
     3    1   30 1    
     4    2    3 ar   
     5    2   31 1    
     6    3    4 ar   
     7    3   17 1    
     8    4    5 ar   
     9    4   32 1    
    10    5    6 ar   
    11    5    7 1    
    12    6   33 1    
    13    7    8 1    
    14    8    9 2    
    15    8   10 1    
    16   10   15 ar   
    17   10   11 ar   
    18   11   12 ar   
    19   11   34 1    
    20   12   13 ar   
    21   12   35 1    
    22   13   14 ar   
    23   13   16 1    
    24   14   15 ar   
    25   14   36 1    
    26   15   37 1    
    27   17   28 am   BACKBONE|DICT|INTERRES
    28   17   18 am   BACKBONE|DICT|INTERRES
    29   18   19 2    
    30   18   20 1    
    31   20   21 1    
    32   20   26 1    
    33   20   22 1    
    34   22   23 1    
    35   22   38 1    
    36   22   39 1    
    37   23   24 2    
    38   23   40 1    
    39   24   25 1    
    40   24   41 1    
    41   25   26 1    
    42   25   42 1    
    43   25   43 1    
    44   26   27 1    
    45   26   28 1    
    46   28   29 2    
@<TRIPOS>SUBSTRUCTURE
     1 <0>         1 GROUP             0       ****    0 ROOT    
@<TRIPOS>MOLECULE
ZINC19892971
63   66    1
SMALL
USER_CHARGES


@<TRIPOS>ATOM
      1 C1          1.9710   10.4674   -0.4435 C.3       1 <0>        -0.2444 
      2 C2          2.9400   11.2086    0.4674 C.2       1 <0>         0.4181 
      3 O1          2.6450   11.4435    1.6379 O.2       1 <0>        -0.4560 
      4 C3          4.2747   11.6450   -0.1538 C.3       1 <0>        -0.1915 
      5 C4          5.3655   12.1491    0.8413 C.3       1 <0>        -0.0695 
      6 H1          4.8927   12.8379    1.5426 H         1 <0>         0.0887 
      7 C5          5.8931   10.9875    1.7308 C.3       1 <0>        -0.1225 
      8 C6          6.9105   11.4916    2.7744 C.3       1 <0>        -0.1245 
      9 C7          8.1657   12.1807    2.1478 C.3       1 <0>        -0.0058 
     10 C8          7.5996   13.3811    1.2685 C.3       1 <0>        -0.0568 
     11 H2          8.4674   13.7966    0.7545 H         1 <0>         0.0648 
     12 C9          6.5354   12.9562    0.1492 C.3       1 <0>        -0.0152 
     13 C10         7.2041   12.0971   -0.9625 C.3       1 <0>        -0.1701 
     14 C11         5.9096   14.2360   -0.4824 C.3       1 <0>        -0.1701 
     15 C12         7.0652   14.5298    2.1952 C.3       1 <0>        -0.1271 
     16 C13         8.0334   15.0000    3.2825 C.3       1 <0>        -0.2003 
     17 C14         8.5271   13.8323    4.1302 C.2       1 <0>         0.4354 
     18 O2          8.4552   13.8201    5.3567 O.2       1 <0>        -0.4370 
     19 C15         9.1321   12.6850    3.3074 C.3       1 <0>        -0.1929 
     20 H3          9.2320   11.8558    4.0050 H         1 <0>         0.1084 
     21 C16        10.5881   13.0938    2.9150 C.3       1 <0>         0.2065 
     22 O3         11.4299   13.1938    4.0626 O.3       1 <0>        -0.3665 
     23 C17        12.7745   13.4374    3.8691 C.ar      1 <0>         0.2070 
     24 C18        13.5482   12.8504    2.8568 C.ar      1 <0>        -0.2318 
     25 C19        14.9005   13.1749    2.7106 C.ar      1 <0>        -0.0381 
     26 C20        15.4884   14.0945    3.5805 C.ar      1 <0>        -0.2167 
     27 C21        16.9060   14.4611    3.5321 C.2       1 <0>         0.0143 
     28 C22        17.4522   15.2830    4.4482 C.2       1 <0>        -0.2406 
     29 C23        16.6408   15.8537    5.5343 C.2       1 <0>         0.4583 
     30 O4         17.0258   16.6099    6.4226 O.2       1 <0>        -0.3887 
     31 O5         15.2937   15.5005    5.5624 O.3       1 <0>        -0.2188 
     32 C24        14.7315   14.6536    4.6160 C.ar      1 <0>         0.1577 
     33 C25        13.3948   14.2945    4.7724 C.ar      1 <0>        -0.1740 
     34 C26         8.9856   11.1175    1.3445 C.3       1 <0>        -0.1728 
     35 H4          1.6805   11.0992   -1.2813 H         1 <0>         0.0892 
     36 H5          1.0697   10.1938    0.1060 H         1 <0>         0.0892 
     37 H6          2.4289    9.5538   -0.8230 H         1 <0>         0.0892 
     38 H7          4.6704   10.8190   -0.7444 H         1 <0>         0.0877 
     39 H8          4.0229   12.4371   -0.8562 H         1 <0>         0.0877 
     40 H9          5.0635   10.5160    2.2583 H         1 <0>         0.0696 
     41 H10         6.2967   10.1812    1.1226 H         1 <0>         0.0696 
     42 H11         6.4000   12.1489    3.4781 H         1 <0>         0.0746 
     43 H12         7.2258   10.6540    3.3894 H         1 <0>         0.0746 
     44 H13         8.2085   12.4486   -1.2020 H         1 <0>         0.0607 
     45 H14         6.6386   12.1500   -1.8933 H         1 <0>         0.0607 
     46 H15         7.2565   11.0368   -0.7374 H         1 <0>         0.0607 
     47 H16         6.6702   14.9780   -0.7191 H         1 <0>         0.0607 
     48 H17         5.1810   14.7158    0.1716 H         1 <0>         0.0607 
     49 H18         5.3903   14.0264   -1.4174 H         1 <0>         0.0607 
     50 H19         6.8037   15.4076    1.6061 H         1 <0>         0.0751 
     51 H20         6.1289   14.2417    2.6722 H         1 <0>         0.0751 
     52 H21         8.9068   15.4523    2.8184 H         1 <0>         0.0950 
     53 H22         7.5621   15.7364    3.9343 H         1 <0>         0.0950 
     54 H23        11.0100   12.3983    2.1945 H         1 <0>         0.0401 
     55 H24        10.6044   14.0798    2.4644 H         1 <0>         0.0401 
     56 H25        13.1227   12.1293    2.1753 H         1 <0>         0.1378 
     57 H26        15.4789   12.7100    1.9258 H         1 <0>         0.1415 
     58 H27        17.5378   14.0530    2.7562 H         1 <0>         0.1457 
     59 H28        18.5033   15.5212    4.3821 H         1 <0>         0.1708 
     60 H29        12.8289   14.6540    5.6119 H         1 <0>         0.1729 
     61 H30         9.5964   11.5768    0.5670 H         1 <0>         0.0626 
     62 H31         8.3959   10.3366    0.8774 H         1 <0>         0.0626 
     63 H32         9.6651   10.5660    1.9955 H         1 <0>         0.0626 
@<TRIPOS>BOND
     1    1    2 1    
     2    1   35 1    
     3    1   36 1    
     4    1   37 1    
     5    2    3 2    
     6    2    4 1    
     7    4    5 1    
     8    4   38 1    
     9    4   39 1    
    10    5    6 1    
    11    5   12 1    
    12    5    7 1    
    13    7    8 1    
    14    7   40 1    
    15    7   41 1    
    16    8    9 1    
    17    8   42 1    
    18    8   43 1    
    19    9   19 1    
    20    9   10 1    
    21    9   34 1    
    22   10   11 1    
    23   10   12 1    
    24   10   15 1    
    25   12   13 1    
    26   12   14 1    
    27   13   44 1    
    28   13   45 1    
    29   13   46 1    
    30   14   47 1    
    31   14   48 1    
    32   14   49 1    
    33   15   16 1    
    34   15   50 1    
    35   15   51 1    
    36   16   17 1    
    37   16   52 1    
    38   16   53 1    
    39   17   18 2    
    40   17   19 1    
    41   19   20 1    
    42   19   21 1    
    43   21   22 1    
    44   21   54 1    
    45   21   55 1    
    46   22   23 1    
    47   23   33 ar   
    48   23   24 ar   
    49   24   25 ar   
    50   24   56 1    
    51   25   26 ar   
    52   25   57 1    
    53   26   32 ar   
    54   26   27 1    
    55   27   28 2    
    56   27   58 1    
    57   28   29 1    
    58   28   59 1    
    59   29   30 2    
    60   29   31 1    
    61   31   32 1    
    62   32   33 ar   
    63   33   60 1    
    64   34   61 1    
    65   34   62 1    
    66   34   63 1    
@<TRIPOS>SUBSTRUCTURE
     1 <0>         1 GROUP             0       ****    0 ROOT    
@<TRIPOS>MOLECULE
ZINC23879753
63   66    1
SMALL
USER_CHARGES


@<TRIPOS>ATOM
      1 C1         12.4857   13.4885    5.6622 C.3       1 <0>        -0.1850 
      2 C2         13.1328   14.2989    4.5137 C.3       1 <0>         0.0250 
      3 H1         12.3537   14.8612    4.0138 H         1 <0>         0.1125 
      4 C3         14.1696   15.3548    4.9406 C.3       1 <0>        -0.0997 
      5 C4         15.4559   14.8792    4.3638 C.ar      1 <0>        -0.1240 
      6 C5         16.7477   15.3857    4.5356 C.ar      1 <0>        -0.0898 
      7 C6         17.8345   14.7066    3.9843 C.ar      1 <0>        -0.1480 
      8 C7         17.6262   13.5310    3.2636 C.ar      1 <0>        -0.1082 
      9 C8         16.3288   13.0622    3.0470 C.ar      1 <0>        -0.1477 
     10 C9         15.2293   13.7693    3.5594 C.ar      1 <0>         0.0214 
     11 N1         13.8493   13.4403    3.5510 N.am      1 <0>        -0.1840 
     12 C10        13.2374   12.6533    2.6166 C.2       1 <0>         0.4419 
     13 O1         13.8918   12.2513    1.6644 O.2       1 <0>        -0.5246 
     14 C11        11.7109   12.2993    2.6477 C.3       1 <0>        -0.0893 
     15 C12        11.3385   10.9690    1.8968 C.3       1 <0>        -0.1322 
     16 C13         9.8132   10.7849    1.6716 C.3       1 <0>        -0.0811 
     17 N2          9.2054   12.0060    1.1183 N.pl3     1 <0>        -0.1732 
     18 C14         9.3998   13.1604    2.0109 C.3       1 <0>        -0.0811 
     19 C15        10.9125   13.4480    2.0639 C.3       1 <0>        -0.1322 
     20 S1          7.6074   11.8374    0.3764 S.o2      1 <0>         0.8663 
     21 O2          7.1876   13.1652   -0.0915 O.2       1 <0>        -0.4978 
     22 O3          7.6526   10.6922   -0.5403 O.2       1 <0>        -0.4978 
     23 C16         6.5259   11.3924    1.7320 C.ar      1 <0>        -0.2064 
     24 C17         6.2664   10.0508    2.0020 C.ar      1 <0>        -0.0319 
     25 C18         5.4320    9.7059    3.0604 C.ar      1 <0>        -0.1461 
     26 C19         4.8420   10.6940    3.8657 C.ar      1 <0>        -0.0089 
     27 C20         5.1475   12.0381    3.6002 C.ar      1 <0>        -0.1461 
     28 C21         5.9772   12.3873    2.5384 C.ar      1 <0>        -0.0319 
     29 C22         3.8995   10.3265    5.0414 C.3       1 <0>         0.0029 
     30 C23         2.6767   11.2801    5.1027 C.3       1 <0>        -0.1669 
     31 C24         3.3255    8.8892    4.9120 C.3       1 <0>        -0.1669 
     32 C25         4.6797   10.4324    6.3724 C.3       1 <0>        -0.1669 
     33 H2         12.6755   13.8970    6.6500 H         1 <0>         0.0728 
     34 H3         12.8320   12.4579    5.6630 H         1 <0>         0.0728 
     35 H4         11.4023   13.4550    5.5481 H         1 <0>         0.0728 
     36 H5         13.9273   16.3219    4.4965 H         1 <0>         0.0920 
     37 H6         14.2806   15.4361    6.0205 H         1 <0>         0.0920 
     38 H7         16.9229   16.2692    5.1323 H         1 <0>         0.1357 
     39 H8         18.8397   15.0742    4.1342 H         1 <0>         0.1346 
     40 H9         18.4690   12.9916    2.8555 H         1 <0>         0.1348 
     41 H10        16.1995   12.1492    2.4871 H         1 <0>         0.1337 
     42 H11        11.4104   12.2528    3.6643 H         1 <0>         0.0831 
     43 H12        11.7804   10.9418    0.8990 H         1 <0>         0.0937 
     44 H13        11.6317   10.0944    2.4646 H         1 <0>         0.0937 
     45 H14         9.5924    9.9319    1.0311 H         1 <0>         0.0868 
     46 H15         9.3886   10.6536    2.6633 H         1 <0>         0.0868 
     47 H16         8.8306   14.0120    1.6382 H         1 <0>         0.0868 
     48 H17         9.0739   12.8977    3.0190 H         1 <0>         0.0868 
     49 H18        11.0338   14.3789    2.6007 H         1 <0>         0.0937 
     50 H19        11.2519   13.4536    1.0355 H         1 <0>         0.0937 
     51 H20         6.7134    9.2726    1.4002 H         1 <0>         0.1485 
     52 H21         5.2636    8.6564    3.2437 H         1 <0>         0.1379 
     53 H22         4.7468   12.8281    4.2164 H         1 <0>         0.1379 
     54 H23         6.1924   13.4288    2.3461 H         1 <0>         0.1485 
     55 H24         1.9776   10.9754    5.8840 H         1 <0>         0.0643 
     56 H25         2.1274   11.2895    4.1597 H         1 <0>         0.0643 
     57 H26         2.9542   12.3076    5.3363 H         1 <0>         0.0643 
     58 H27         2.5618    8.6906    5.6644 H         1 <0>         0.0643 
     59 H28         4.0927    8.1267    5.0555 H         1 <0>         0.0643 
     60 H29         2.8606    8.7244    3.9393 H         1 <0>         0.0643 
     61 H30         4.0300   10.2526    7.2303 H         1 <0>         0.0643 
     62 H31         5.1197   11.4215    6.5116 H         1 <0>         0.0643 
     63 H32         5.4906    9.7046    6.4204 H         1 <0>         0.0643 
@<TRIPOS>BOND
     1    1    2 1    
     2    1   33 1    
     3    1   34 1    
     4    1   35 1    
     5    2    3 1    
     6    2   11 1    
     7    2    4 1    
     8    4    5 1    
     9    4   36 1    
    10    4   37 1    
    11    5   10 ar   
    12    5    6 ar   
    13    6    7 ar   
    14    6   38 1    
    15    7    8 ar   
    16    7   39 1    
    17    8    9 ar   
    18    8   40 1    
    19    9   10 ar   
    20    9   41 1    
    21   10   11 1    
    22   11   12 am   BACKBONE|DICT|INTERRES
    23   12   13 2    
    24   12   14 1    
    25   14   19 1    
    26   14   15 1    
    27   14   42 1    
    28   15   16 1    
    29   15   43 1    
    30   15   44 1    
    31   16   17 1    
    32   16   45 1    
    33   16   46 1    
    34   17   18 1    
    35   17   20 1    
    36   18   19 1    
    37   18   47 1    
    38   18   48 1    
    39   19   49 1    
    40   19   50 1    
    41   20   21 2    
    42   20   22 2    
    43   20   23 1    
    44   23   28 ar   
    45   23   24 ar   
    46   24   25 ar   
    47   24   51 1    
    48   25   26 ar   
    49   25   52 1    
    50   26   27 ar   
    51   26   29 1    
    52   27   28 ar   
    53   27   53 1    
    54   28   54 1    
    55   29   30 1    
    56   29   31 1    
    57   29   32 1    
    58   30   55 1    
    59   30   56 1    
    60   30   57 1    
    61   31   58 1    
    62   31   59 1    
    63   31   60 1    
    64   32   61 1    
    65   32   62 1    
    66   32   63 1    
@<TRIPOS>SUBSTRUCTURE
     1 <0>         1 GROUP             0       ****    0 ROOT    
@<TRIPOS>MOLECULE
ZINC24136882
58   62    1
SMALL
USER_CHARGES


@<TRIPOS>ATOM
      1 C1         13.9236   13.5171    3.8288 C.ar      1 <0>        -0.2753 
      2 C2         13.9753   12.6663    2.7226 C.ar      1 <0>        -0.0312 
      3 C3         12.7914   12.2538    2.1121 C.ar      1 <0>        -0.4204 
      4 C4         11.5636   12.6421    2.6312 C.ar      1 <0>         0.8065 
      5 C5         11.5142   13.4778    3.7421 C.ar      1 <0>        -0.5075 
      6 C6         12.6941   13.9319    4.3426 C.ar      1 <0>         0.0344 
      7 C7         10.1608   13.8536    4.2933 C.ar      1 <0>         0.7695 
      8 O1         10.0336   14.6027    5.2654 O.2       1 <0>        -0.5684 
      9 N1          9.1061   13.2647    3.6173 N.pl3     1 <0>        -0.1257 
     10 C8          9.2393   12.4463    2.4959 C.ar      1 <0>         0.4816 
     11 N2         10.4020   12.1630    2.0262 N.2       1 <0>        -0.8825 
     12 S1          7.7914   11.7403    1.6485 S.3       1 <0>        -0.1424 
     13 C9          8.5311   10.7484    0.2927 C.3       1 <0>        -0.0375 
     14 C10         7.5561   10.3619   -0.8429 C.2       1 <0>         0.4798 
     15 O2          6.4401   10.8785   -0.8152 O.2       1 <0>        -0.5283 
     16 N3          7.9615    9.5095   -1.8392 N.am      1 <0>        -0.3366 
     17 C11         9.3975    9.1380   -1.9366 C.3       1 <0>         0.0117 
     18 C12         9.5179    7.6143   -2.0560 C.3       1 <0>        -0.1524 
     19 C13         8.7559    7.0989   -3.2743 C.3       1 <0>        -0.1233 
     20 C14         7.2811    7.5431   -3.2521 C.3       1 <0>        -0.0966 
     21 H1          6.8729    7.3167   -4.2394 H         1 <0>         0.0787 
     22 C15         7.1317    9.0934   -3.0330 C.3       1 <0>         0.0633 
     23 H2          7.5195    9.6309   -3.8999 H         1 <0>         0.1147 
     24 C16         5.5950    9.3997   -3.0555 C.3       1 <0>        -0.1386 
     25 C17         4.7465    8.5776   -2.0559 C.3       1 <0>        -0.1258 
     26 C18         4.9893    7.0680   -2.2182 C.3       1 <0>        -0.1311 
     27 C19         6.4926    6.7574   -2.1673 C.3       1 <0>        -0.1233 
     28 C20         7.8199   13.5345    4.1483 C.ar      1 <0>        -0.1315 
     29 C21         7.2551   12.6511    5.0806 C.ar      1 <0>        -0.0758 
     30 C22         6.0102   12.9282    5.6443 C.ar      1 <0>        -0.1408 
     31 C23         5.3144   14.0775    5.2703 C.ar      1 <0>        -0.0884 
     32 C24         5.8624   14.9520    4.3310 C.ar      1 <0>        -0.1643 
     33 C25         7.1116   14.6863    3.7689 C.ar      1 <0>         0.2057 
     34 F1          7.6317   15.5495    2.8645 F         1 <0>        -0.1704 
     35 H3         14.8380   13.8530    4.2958 H         1 <0>         0.1655 
     36 H4         14.9263   12.3390    2.3301 H         1 <0>         0.1491 
     37 H5         12.8258   11.5851    1.2644 H         1 <0>         0.1904 
     38 H6         12.6737   14.5809    5.2072 H         1 <0>         0.1384 
     39 H7          9.3455   11.3179   -0.1535 H         1 <0>         0.1197 
     40 H8          8.9545    9.8534    0.7474 H         1 <0>         0.1197 
     41 H9          9.7949    9.6044   -2.8394 H         1 <0>         0.0805 
     42 H10        10.0294    9.4537   -1.1103 H         1 <0>         0.0805 
     43 H11        10.5705    7.3533   -2.1553 H         1 <0>         0.0748 
     44 H12         9.1826    7.1296   -1.1371 H         1 <0>         0.0748 
     45 H13         9.2332    7.4756   -4.1803 H         1 <0>         0.0703 
     46 H14         8.8292    6.0109   -3.3225 H         1 <0>         0.0703 
     47 H15         5.4006   10.4668   -2.9524 H         1 <0>         0.0720 
     48 H16         5.2281    9.1753   -4.0584 H         1 <0>         0.0720 
     49 H17         4.9758    8.8636   -1.0297 H         1 <0>         0.0703 
     50 H18         3.6877    8.8005   -2.1954 H         1 <0>         0.0703 
     51 H19         4.4654    6.5190   -1.4345 H         1 <0>         0.0665 
     52 H20         4.5718    6.7255   -3.1665 H         1 <0>         0.0665 
     53 H21         6.6406    5.6859   -2.3103 H         1 <0>         0.0698 
     54 H22         6.8908    6.9591   -1.1722 H         1 <0>         0.0698 
     55 H23         7.7787   11.7560    5.3815 H         1 <0>         0.1475 
     56 H24         5.5895   12.2536    6.3778 H         1 <0>         0.1414 
     57 H25         4.3503   14.2878    5.7100 H         1 <0>         0.1405 
     58 H26         5.3194   15.8389    4.0407 H         1 <0>         0.1517 
@<TRIPOS>BOND
     1    1    6 ar   
     2    1    2 ar   
     3    1   35 1    
     4    2    3 ar   
     5    2   36 1    
     6    3    4 ar   
     7    3   37 1    
     8    4   11 ar   
     9    4    5 ar   
    10    5    6 ar   
    11    5    7 ar   
    12    6   38 1    
    13    7    8 2    
    14    7    9 ar   
    15    9   10 ar   
    16    9   28 1    
    17   10   11 ar   
    18   10   12 1    
    19   12   13 1    
    20   13   14 1    
    21   13   39 1    
    22   13   40 1    
    23   14   15 2    
    24   14   16 am   BACKBONE|DICT|INTERRES
    25   16   22 1    
    26   16   17 1    
    27   17   18 1    
    28   17   41 1    
    29   17   42 1    
    30   18   19 1    
    31   18   43 1    
    32   18   44 1    
    33   19   20 1    
    34   19   45 1    
    35   19   46 1    
    36   20   21 1    
    37   20   27 1    
    38   20   22 1    
    39   22   23 1    
    40   22   24 1    
    41   24   25 1    
    42   24   47 1    
    43   24   48 1    
    44   25   26 1    
    45   25   49 1    
    46   25   50 1    
    47   26   27 1    
    48   26   51 1    
    49   26   52 1    
    50   27   53 1    
    51   27   54 1    
    52   28   33 ar   
    53   28   29 ar   
    54   29   30 ar   
    55   29   55 1    
    56   30   31 ar   
    57   30   56 1    
    58   31   32 ar   
    59   31   57 1    
    60   32   33 ar   
    61   32   58 1    
    62   33   34 1    
@<TRIPOS>SUBSTRUCTURE
     1 <0>         1 GROUP             0       ****    0 ROOT    
@<TRIPOS>MOLECULE
ZINC26103738
48   51    1
SMALL
USER_CHARGES


@<TRIPOS>ATOM
      1 C1          5.2559    5.8341   -2.2936 C.3       1 <0>        -0.1308 
      2 C2          6.0253    7.1484   -2.2504 C.ar      1 <0>        -0.0275 
      3 C3          6.0459    7.9380   -3.4046 C.ar      1 <0>        -0.1463 
      4 C4          6.7316    9.1493   -3.4192 C.ar      1 <0>         0.1200 
      5 C5          7.4160    9.5963   -2.2824 C.ar      1 <0>        -0.1797 
      6 C6          7.4140    8.7924   -1.1350 C.ar      1 <0>        -0.0673 
      7 C7          6.7153    7.5750   -1.0951 C.ar      1 <0>        -0.0936 
      8 C8          6.7316    6.7304    0.1936 C.3       1 <0>        -0.0375 
      9 C9          7.9074    5.7361    0.1986 C.3       1 <0>        -0.1689 
     10 C10         6.6941    7.5635    1.4947 C.3       1 <0>        -0.1689 
     11 C11         8.0832   10.9176   -2.3780 C.2       1 <0>         0.0869 
     12 C12         8.0318   11.6096   -3.5367 C.2       1 <0>        -0.2185 
     13 C13         7.3303   11.1077   -4.7220 C.2       1 <0>         0.4599 
     14 O1          7.2403   11.6592   -5.8171 O.2       1 <0>        -0.3885 
     15 O2          6.6985    9.8798   -4.5996 O.3       1 <0>        -0.2185 
     16 C14         8.8318   11.4558   -1.1646 C.3       1 <0>         0.0047 
     17 S1          7.7458   12.2002    0.0947 S.3       1 <0>        -0.1883 
     18 C15         8.9122   12.6218    1.4234 C.ar      1 <0>         0.2560 
     19 N1         10.1385   12.2350    1.2932 N.2       1 <0>        -0.6289 
     20 C16        11.0530   12.6204    2.2217 C.ar      1 <0>         0.3159 
     21 C17        12.4019   12.2540    2.2273 C.2       1 <0>        -0.1170 
     22 C18        13.1148   12.8403    3.2699 C.2       1 <0>        -0.2105 
     23 S2         12.1139   13.8538    4.2650 S.3       1 <0>         0.1173 
     24 C19        10.7348   13.4503    3.2909 C.ar      1 <0>        -0.1996 
     25 C20         9.3729   13.9033    3.5083 C.ar      1 <0>         0.4423 
     26 O3          9.0084   14.6519    4.4180 O.2       1 <0>        -0.5083 
     27 N2          8.5241   13.3805    2.5354 N.pl3     1 <0>        -0.0703 
     28 C21         7.1021   13.7183    2.7491 C.3       1 <0>        -0.0924 
     29 H1          4.9172    5.5855   -3.3001 H         1 <0>         0.0765 
     30 H2          4.3859    5.8813   -1.6378 H         1 <0>         0.0765 
     31 H3          5.8841    5.0104   -1.9555 H         1 <0>         0.0765 
     32 H4          5.5237    7.6170   -4.2943 H         1 <0>         0.1568 
     33 H5          7.9510    9.1152   -0.2569 H         1 <0>         0.1428 
     34 H6          5.8147    6.1418    0.2183 H         1 <0>         0.0767 
     35 H7          7.9062    5.1219    1.0995 H         1 <0>         0.0638 
     36 H8          8.8644    6.2518    0.1536 H         1 <0>         0.0638 
     37 H9          7.8657    5.0615   -0.6560 H         1 <0>         0.0638 
     38 H10         6.5354    6.9263    2.3652 H         1 <0>         0.0638 
     39 H11         5.8844    8.2944    1.4765 H         1 <0>         0.0638 
     40 H12         7.6263    8.1031    1.6641 H         1 <0>         0.0638 
     41 H13         8.5287   12.5682   -3.5985 H         1 <0>         0.1727 
     42 H14         9.4371   10.6638   -0.7232 H         1 <0>         0.1196 
     43 H15         9.5371   12.2266   -1.4859 H         1 <0>         0.1196 
     44 H16        12.8348   11.5920    1.4911 H         1 <0>         0.1655 
     45 H17        14.1651   12.7261    3.4940 H         1 <0>         0.2212 
     46 H18         6.8167   13.6037    3.7968 H         1 <0>         0.0903 
     47 H19         6.4205   13.0790    2.1882 H         1 <0>         0.0903 
     48 H20         6.9090   14.7513    2.4581 H         1 <0>         0.0903 
@<TRIPOS>BOND
     1    1    2 1    
     2    1   29 1    
     3    1   30 1    
     4    1   31 1    
     5    2    7 ar   
     6    2    3 ar   
     7    3    4 ar   
     8    3   32 1    
     9    4   15 1    
    10    4    5 ar   
    11    5    6 ar   
    12    5   11 1    
    13    6    7 ar   
    14    6   33 1    
    15    7    8 1    
    16    8    9 1    
    17    8   10 1    
    18    8   34 1    
    19    9   35 1    
    20    9   36 1    
    21    9   37 1    
    22   10   38 1    
    23   10   39 1    
    24   10   40 1    
    25   11   12 2    
    26   11   16 1    
    27   12   13 1    
    28   12   41 1    
    29   13   14 2    
    30   13   15 1    
    31   16   17 1    
    32   16   42 1    
    33   16   43 1    
    34   17   18 1    
    35   18   27 ar   
    36   18   19 ar   
    37   19   20 ar   
    38   20   24 ar   
    39   20   21 1    
    40   21   22 2    
    41   21   44 1    
    42   22   23 1    
    43   22   45 1    
    44   23   24 1    
    45   24   25 ar   
    46   25   26 2    
    47   25   27 ar   
    48   27   28 1    
    49   28   46 1    
    50   28   47 1    
    51   28   48 1    
@<TRIPOS>SUBSTRUCTURE
     1 <0>         1 GROUP             0       ****    0 ROOT    
@<TRIPOS>MOLECULE
ZINC33864529
59   63    1
SMALL
USER_CHARGES


@<TRIPOS>ATOM
      1 C1         14.8263   12.6463    1.9271 C.3       1 <0>        -0.1654 
      2 C2         14.2183   13.0655    3.2953 C.3       1 <0>         0.0104 
      3 C3         14.4884   11.9355    4.2948 C.3       1 <0>        -0.1654 
      4 C4         14.9962   14.3300    3.7581 C.3       1 <0>        -0.1654 
      5 C5         12.6829   13.2836    3.2961 C.ar      1 <0>        -0.0542 
      6 C6         12.1006   14.1065    4.2706 C.ar      1 <0>        -0.1307 
      7 C7         10.7224   14.2534    4.3523 C.ar      1 <0>        -0.0974 
      8 C8          9.8869   13.5883    3.4570 C.ar      1 <0>        -0.0890 
      9 C9         10.4492   12.7613    2.4801 C.ar      1 <0>        -0.0974 
     10 C10        11.8345   12.6166    2.3984 C.ar      1 <0>        -0.1307 
     11 C11         8.3736   13.7180    3.6264 C.3       1 <0>         0.0377 
     12 H1          8.2544   14.5688    4.2956 H         1 <0>         0.0909 
     13 C12         7.5661   14.0091    2.3539 C.ar      1 <0>        -0.1625 
     14 C13         7.6312   15.0415    1.4247 C.ar      1 <0>        -0.1797 
     15 C14         6.6371   14.8636    0.4667 C.ar      1 <0>        -0.2040 
     16 C15         5.9673   13.7082    0.8091 C.ar      1 <0>        -0.3109 
     17 N1          6.5396   13.1667    1.9358 N.pl3     1 <0>         0.1929 
     18 C16         6.0713   11.9831    2.6628 C.3       1 <0>        -0.0749 
     19 C17         7.2369   11.4576    3.5213 C.3       1 <0>        -0.1169 
     20 N2          7.8157   12.5429    4.3445 N.pl3     1 <0>        -0.2398 
     21 S1          7.3980   12.6533    6.0633 S.o2      1 <0>         0.8803 
     22 O1          7.6313   11.3281    6.6505 O.2       1 <0>        -0.4749 
     23 O2          8.0494   13.8405    6.6335 O.2       1 <0>        -0.4749 
     24 C18         5.6188   12.9315    6.0640 C.ar      1 <0>        -0.2354 
     25 C19         4.7845   11.8887    6.4767 C.ar      1 <0>        -0.0005 
     26 C20         3.4035   12.0317    6.4953 C.ar      1 <0>        -0.1563 
     27 C21         2.8116   13.2213    6.0855 C.ar      1 <0>        -0.1119 
     28 C22         3.6150   14.3015    5.6478 C.ar      1 <0>         0.0234 
     29 C23         5.0406   14.1649    5.6356 C.ar      1 <0>         0.2034 
     30 N3          5.8389   15.1901    5.2144 N.ar      1 <0>        -0.2759 
     31 C24         5.2661   16.3465    4.8046 C.ar      1 <0>         0.0386 
     32 C25         3.8918   16.5558    4.7895 C.ar      1 <0>        -0.1913 
     33 C26         3.0527   15.5298    5.2152 C.ar      1 <0>        -0.1218 
     34 H2         14.3338   11.7860    1.4782 H         1 <0>         0.0614 
     35 H3         14.8314   13.4543    1.2004 H         1 <0>         0.0614 
     36 H4         15.8721   12.3584    2.0424 H         1 <0>         0.0614 
     37 H5         15.5569   11.7794    4.4197 H         1 <0>         0.0614 
     38 H6         14.0703   12.1807    5.2646 H         1 <0>         0.0614 
     39 H7         14.0299   10.9983    3.9875 H         1 <0>         0.0614 
     40 H8         14.6961   15.2179    3.2043 H         1 <0>         0.0614 
     41 H9         14.8495   14.5462    4.8166 H         1 <0>         0.0614 
     42 H10        16.0729   14.2124    3.6260 H         1 <0>         0.0614 
     43 H11        12.7031   14.6174    5.0043 H         1 <0>         0.1304 
     44 H12        10.3046   14.8690    5.1353 H         1 <0>         0.1316 
     45 H13         9.8150   12.2210    1.7923 H         1 <0>         0.1316 
     46 H14        12.2255   11.9470    1.6487 H         1 <0>         0.1304 
     47 H15         8.3381   15.8539    1.4474 H         1 <0>         0.1761 
     48 H16         6.4267   15.5073   -0.3751 H         1 <0>         0.1798 
     49 H17         5.1256   13.2165    0.3440 H         1 <0>         0.2060 
     50 H18         5.2214   12.2670    3.2838 H         1 <0>         0.0914 
     51 H19         5.7261   11.2261    1.9584 H         1 <0>         0.0914 
     52 H20         6.9030   10.6535    4.1789 H         1 <0>         0.1187 
     53 H21         8.0331   11.0531    2.8952 H         1 <0>         0.1187 
     54 H22         5.2038   10.9510    6.8143 H         1 <0>         0.1540 
     55 H23         2.7921   11.2078    6.8419 H         1 <0>         0.1435 
     56 H24         1.7364   13.3248    6.1036 H         1 <0>         0.1384 
     57 H25         5.9437   17.1234    4.4824 H         1 <0>         0.1664 
     58 H26         3.4834   17.4977    4.4541 H         1 <0>         0.1483 
     59 H27         1.9800   15.6601    5.2168 H         1 <0>         0.1409 
@<TRIPOS>BOND
     1    1    2 1    
     2    1   34 1    
     3    1   35 1    
     4    1   36 1    
     5    2    3 1    
     6    2    4 1    
     7    2    5 1    
     8    3   37 1    
     9    3   38 1    
    10    3   39 1    
    11    4   40 1    
    12    4   41 1    
    13    4   42 1    
    14    5   10 ar   
    15    5    6 ar   
    16    6    7 ar   
    17    6   43 1    
    18    7    8 ar   
    19    7   44 1    
    20    8    9 ar   
    21    8   11 1    
    22    9   10 ar   
    23    9   45 1    
    24   10   46 1    
    25   11   12 1    
    26   11   20 1    
    27   11   13 1    
    28   13   17 ar   
    29   13   14 ar   
    30   14   15 ar   
    31   14   47 1    
    32   15   16 ar   
    33   15   48 1    
    34   16   17 ar   
    35   16   49 1    
    36   17   18 1    
    37   18   19 1    
    38   18   50 1    
    39   18   51 1    
    40   19   20 1    
    41   19   52 1    
    42   19   53 1    
    43   20   21 1    
    44   21   22 2    
    45   21   23 2    
    46   21   24 1    
    47   24   29 ar   
    48   24   25 ar   
    49   25   26 ar   
    50   25   54 1    
    51   26   27 ar   
    52   26   55 1    
    53   27   28 ar   
    54   27   56 1    
    55   28   33 ar   
    56   28   29 ar   
    57   29   30 ar   
    58   30   31 ar   
    59   31   32 ar   
    60   31   57 1    
    61   32   33 ar   
    62   32   58 1    
    63   33   59 1    
@<TRIPOS>SUBSTRUCTURE
     1 <0>         1 GROUP             0       ****    0 ROOT    
@<TRIPOS>MOLECULE
ZINC35865398
63   66    1
SMALL
USER_CHARGES


@<TRIPOS>ATOM
      1 C1          6.9302   11.9137   -5.8459 C.3       1 <0>        -0.1755 
      2 C2          7.3367   10.9039   -4.7629 C.3       1 <0>        -0.1181 
      3 C3          7.9598   11.5871   -3.5255 C.3       1 <0>        -0.1441 
      4 C4          8.3982   10.6258   -2.3970 C.2       1 <0>         0.4634 
      5 O1          8.2490    9.4122   -2.5622 O.2       1 <0>        -0.5397 
      6 N1          8.8316   11.1460   -1.2171 N.am      1 <0>        -0.3601 
      7 C5          9.2014   12.5586   -1.0494 C.3       1 <0>        -0.0010 
      8 C6          8.4926   13.0809    0.2132 C.3       1 <0>        -0.0259 
      9 N2          8.7050   12.2957    1.4354 N.pl3     1 <0>        -0.5029 
     10 C7          8.5145   10.8551    1.2014 C.3       1 <0>        -0.0259 
     11 C8          9.1598   10.2740   -0.0773 C.3       1 <0>        -0.0010 
     12 C9          9.5305   12.7388    2.4606 C.ar      1 <0>         0.2188 
     13 C10         8.9530   13.0804    3.7076 C.ar      1 <0>         0.3279 
     14 C11         7.6021   13.0876    4.1962 C.2       1 <0>        -0.1978 
     15 C12         7.5458   13.4952    5.5286 C.2       1 <0>        -0.0436 
     16 S1          9.1055   13.8536    6.2300 S.3       1 <0>         0.0305 
     17 C13         9.8762   13.5324    4.6951 C.ar      1 <0>         0.0553 
     18 N3         11.1912   13.6617    4.5143 N.ar      1 <0>        -0.2256 
     19 C14        11.6392   13.2655    3.2937 C.ar      1 <0>         0.0272 
     20 N4         10.8791   12.8108    2.2559 N.ar      1 <0>        -0.2038 
     21 C15        13.1659   13.2555    3.1172 C.3       1 <0>        -0.0129 
     22 H1         13.3683   13.0566    2.0644 H         1 <0>         0.0958 
     23 C16        13.8360   14.5981    3.5033 C.3       1 <0>        -0.1637 
     24 C17        13.8344   12.1152    3.9106 C.3       1 <0>        -0.1226 
     25 C18        15.3503   12.0108    3.6610 C.3       1 <0>        -0.1715 
     26 C19         6.2636   13.5463    6.3445 C.3       1 <0>        -0.1305 
     27 C20         5.0648   13.7204    5.3875 C.3       1 <0>        -0.0844 
     28 H2          5.1212   14.7044    4.9183 H         1 <0>         0.0781 
     29 C21         5.1212   12.6068    4.3244 C.3       1 <0>        -0.1301 
     30 C22         6.3431   12.7398    3.3915 C.3       1 <0>        -0.1331 
     31 C23         3.7447   13.6705    6.1783 C.3       1 <0>        -0.1712 
     32 H3          6.1884   12.6195   -5.4695 H         1 <0>         0.0594 
     33 H4          7.7904   12.4886   -6.1916 H         1 <0>         0.0594 
     34 H5          6.4993   11.4080   -6.7107 H         1 <0>         0.0594 
     35 H6          6.4594   10.3251   -4.4680 H         1 <0>         0.0810 
     36 H7          8.0481   10.1948   -5.1907 H         1 <0>         0.0810 
     37 H8          8.8319   12.1512   -3.8533 H         1 <0>         0.0805 
     38 H9          7.2417   12.2969   -3.1136 H         1 <0>         0.0805 
     39 H10        10.2803   12.6538   -0.9215 H         1 <0>         0.0946 
     40 H11         8.9453   13.1757   -1.9078 H         1 <0>         0.0946 
     41 H12         8.7676   14.1189    0.3788 H         1 <0>         0.0819 
     42 H13         7.4154   13.0685    0.0393 H         1 <0>         0.0819 
     43 H14         8.8698   10.2888    2.0633 H         1 <0>         0.0819 
     44 H15         7.4356   10.7075    1.1344 H         1 <0>         0.0819 
     45 H16         8.8307    9.2442   -0.2231 H         1 <0>         0.0946 
     46 H17        10.2412   10.2551    0.0631 H         1 <0>         0.0946 
     47 H18        14.7800   14.7387    2.9757 H         1 <0>         0.0654 
     48 H19        13.2317   15.4536    3.2641 H         1 <0>         0.0654 
     49 H20        14.0360   14.6598    4.5745 H         1 <0>         0.0654 
     50 H21        13.6566   12.2647    4.9759 H         1 <0>         0.0725 
     51 H22        13.3605   11.1641    3.6670 H         1 <0>         0.0725 
     52 H23        15.8224   11.4540    4.4639 H         1 <0>         0.0604 
     53 H24        15.5613   11.5196    2.7109 H         1 <0>         0.0604 
     54 H25        15.8630   12.9702    3.6580 H         1 <0>         0.0604 
     55 H26         6.1647   12.5953    6.8646 H         1 <0>         0.0819 
     56 H27         6.2921   14.3212    7.1114 H         1 <0>         0.0819 
     57 H28         5.0954   11.6278    4.8076 H         1 <0>         0.0702 
     58 H29         4.2131   12.6279    3.7202 H         1 <0>         0.0702 
     59 H30         6.1604   13.5035    2.6348 H         1 <0>         0.0838 
     60 H31         6.4625   11.7976    2.8598 H         1 <0>         0.0838 
     61 H32         3.7071   14.4557    6.9344 H         1 <0>         0.0622 
     62 H33         2.8846   13.8080    5.5217 H         1 <0>         0.0622 
     63 H34         3.6195   12.7148    6.6908 H         1 <0>         0.0622 
@<TRIPOS>BOND
     1    1    2 1    
     2    1   32 1    
     3    1   33 1    
     4    1   34 1    
     5    2    3 1    
     6    2   35 1    
     7    2   36 1    
     8    3    4 1    
     9    3   37 1    
    10    3   38 1    
    11    4    5 2    
    12    4    6 am   BACKBONE|DICT|INTERRES
    13    6   11 1    
    14    6    7 1    
    15    7    8 1    
    16    7   39 1    
    17    7   40 1    
    18    8    9 1    
    19    8   41 1    
    20    8   42 1    
    21    9   10 1    
    22    9   12 1    
    23   10   11 1    
    24   10   43 1    
    25   10   44 1    
    26   11   45 1    
    27   11   46 1    
    28   12   20 ar   
    29   12   13 ar   
    30   13   17 ar   
    31   13   14 1    
    32   14   30 1    
    33   14   15 2    
    34   15   16 1    
    35   15   26 1    
    36   16   17 1    
    37   17   18 ar   
    38   18   19 ar   
    39   19   20 ar   
    40   19   21 1    
    41   21   22 1    
    42   21   23 1    
    43   21   24 1    
    44   23   47 1    
    45   23   48 1    
    46   23   49 1    
    47   24   25 1    
    48   24   50 1    
    49   24   51 1    
    50   25   52 1    
    51   25   53 1    
    52   25   54 1    
    53   26   27 1    
    54   26   55 1    
    55   26   56 1    
    56   27   28 1    
    57   27   29 1    
    58   27   31 1    
    59   29   30 1    
    60   29   57 1    
    61   29   58 1    
    62   30   59 1    
    63   30   60 1    
    64   31   61 1    
    65   31   62 1    
    66   31   63 1    
@<TRIPOS>SUBSTRUCTURE
     1 <0>         1 GROUP             0       ****    0 ROOT    
@<TRIPOS>MOLECULE
ZINC35866080
64   68    1
SMALL
USER_CHARGES


@<TRIPOS>ATOM
      1 C1          4.2572   16.5653    1.6583 C.3       1 <0>        -0.1722 
      2 C2          5.6002   15.8253    1.5802 C.3       1 <0>        -0.1251 
      3 C3          5.9056   15.0025    2.8491 C.3       1 <0>        -0.0616 
      4 C4          7.2541   14.2919    2.8057 C.ar      1 <0>         0.0230 
      5 N1          7.4820   13.4807    1.7456 N.ar      1 <0>        -0.2075 
      6 C5          8.6817   12.8409    1.6854 C.ar      1 <0>         0.2207 
      7 C6          9.6898   13.0843    2.6599 C.ar      1 <0>         0.3279 
      8 C7         11.0759   12.7228    2.7770 C.2       1 <0>        -0.1974 
      9 C8         11.6801   13.3112    3.8915 C.2       1 <0>        -0.0437 
     10 S1         10.5809   14.2536    4.8636 S.3       1 <0>         0.0304 
     11 C9          9.2987   13.9658    3.7148 C.ar      1 <0>         0.0536 
     12 N2          8.1081   14.5607    3.8231 N.ar      1 <0>        -0.2210 
     13 C10        13.1596   13.1823    4.2542 C.3       1 <0>        -0.1305 
     14 C11        13.8027   12.0187    3.4533 C.3       1 <0>        -0.0844 
     15 H1         13.5211   11.0613    3.8995 H         1 <0>         0.0781 
     16 C12        13.3625   12.1009    1.9969 C.3       1 <0>        -0.1301 
     17 C13        11.8600   11.8470    1.8113 C.3       1 <0>        -0.1331 
     18 C14        15.3340   12.1330    3.4911 C.3       1 <0>        -0.1712 
     19 N3          8.8635   12.0242    0.5759 N.pl3     1 <0>        -0.5046 
     20 C15         9.1247   10.5791    0.6484 C.3       1 <0>        -0.0254 
     21 C16         8.2138    9.7323   -0.2773 C.3       1 <0>        -0.0017 
     22 N4          8.3463   10.2735   -1.6370 N.am      1 <0>        -0.3592 
     23 C17         7.8811   11.6583   -1.7691 C.3       1 <0>        -0.0017 
     24 C18         8.6794   12.5389   -0.7875 C.3       1 <0>        -0.0254 
     25 C19         8.9415    9.5660   -2.6376 C.2       1 <0>         0.4659 
     26 O1          9.2773    8.3876   -2.4870 O.2       1 <0>        -0.5386 
     27 C20         9.2237   10.2621   -4.0033 C.3       1 <0>        -0.0954 
     28 C21         7.9394   10.3247   -4.8755 C.3       1 <0>        -0.1235 
     29 C22         8.2574    9.5892   -6.1869 C.3       1 <0>        -0.1355 
     30 C23         9.4363    8.6770   -5.8567 C.3       1 <0>        -0.1355 
     31 C24        10.2592    9.5162   -4.8807 C.3       1 <0>        -0.1235 
     32 H2          3.4292   15.8690    1.8072 H         1 <0>         0.0610 
     33 H3          4.2456   17.2801    2.4822 H         1 <0>         0.0610 
     34 H4          4.0638   17.1181    0.7371 H         1 <0>         0.0610 
     35 H5          5.5934   15.1730    0.7059 H         1 <0>         0.0732 
     36 H6          6.3985   16.5498    1.4119 H         1 <0>         0.0732 
     37 H7          5.8442   15.6464    3.7278 H         1 <0>         0.0893 
     38 H8          5.1348   14.2411    2.9747 H         1 <0>         0.0893 
     39 H9         13.6549   14.1244    4.0153 H         1 <0>         0.0819 
     40 H10        13.2855   13.0086    5.3195 H         1 <0>         0.0819 
     41 H11        13.6871   13.0538    1.6644 H         1 <0>         0.0702 
     42 H12        13.9346   11.4537    1.3398 H         1 <0>         0.0702 
     43 H13        11.6359   10.7934    1.9834 H         1 <0>         0.0839 
     44 H14        11.5924   12.0736    0.7828 H         1 <0>         0.0839 
     45 H15        15.7011   11.8536    4.4644 H         1 <0>         0.0622 
     46 H16        15.8060   11.4551    2.7818 H         1 <0>         0.0622 
     47 H17        15.6869   13.1392    3.2598 H         1 <0>         0.0622 
     48 H18        10.1574   10.4106    0.3488 H         1 <0>         0.0815 
     49 H19         9.0332   10.2310    1.6763 H         1 <0>         0.0815 
     50 H20         8.4306    8.6649   -0.2214 H         1 <0>         0.0950 
     51 H21         7.1769    9.8233    0.0471 H         1 <0>         0.0950 
     52 H22         7.9242   12.0650   -2.7792 H         1 <0>         0.0950 
     53 H23         6.8285   11.6793   -1.4842 H         1 <0>         0.0950 
     54 H24         8.2263   13.5229   -0.7341 H         1 <0>         0.0815 
     55 H25         9.6945   12.6562   -1.1710 H         1 <0>         0.0815 
     56 H26         9.6298   11.2539   -3.7992 H         1 <0>         0.0791 
     57 H27         7.0821    9.8407   -4.4005 H         1 <0>         0.0769 
     58 H28         7.6512   11.3575   -5.0803 H         1 <0>         0.0769 
     59 H29         7.3988    9.0350   -6.5721 H         1 <0>         0.0722 
     60 H30         8.5525   10.3097   -6.9537 H         1 <0>         0.0722 
     61 H31         9.0899    7.7632   -5.3686 H         1 <0>         0.0722 
     62 H32        10.0052    8.3898   -6.7417 H         1 <0>         0.0722 
     63 H33        10.8498   10.2537   -5.4281 H         1 <0>         0.0769 
     64 H34        10.9813    8.9194   -4.3245 H         1 <0>         0.0769 
@<TRIPOS>BOND
     1    1    2 1    
     2    1   32 1    
     3    1   33 1    
     4    1   34 1    
     5    2    3 1    
     6    2   35 1    
     7    2   36 1    
     8    3    4 1    
     9    3   37 1    
    10    3   38 1    
    11    4   12 ar   
    12    4    5 ar   
    13    5    6 ar   
    14    6    7 ar   
    15    6   19 1    
    16    7   11 ar   
    17    7    8 1    
    18    8   17 1    
    19    8    9 2    
    20    9   10 1    
    21    9   13 1    
    22   10   11 1    
    23   11   12 ar   
    24   13   14 1    
    25   13   39 1    
    26   13   40 1    
    27   14   15 1    
    28   14   16 1    
    29   14   18 1    
    30   16   17 1    
    31   16   41 1    
    32   16   42 1    
    33   17   43 1    
    34   17   44 1    
    35   18   45 1    
    36   18   46 1    
    37   18   47 1    
    38   19   24 1    
    39   19   20 1    
    40   20   21 1    
    41   20   48 1    
    42   20   49 1    
    43   21   22 1    
    44   21   50 1    
    45   21   51 1    
    46   22   23 1    
    47   22   25 am   BACKBONE|DICT|INTERRES
    48   23   24 1    
    49   23   52 1    
    50   23   53 1    
    51   24   54 1    
    52   24   55 1    
    53   25   26 2    
    54   25   27 1    
    55   27   31 1    
    56   27   28 1    
    57   27   56 1    
    58   28   29 1    
    59   28   57 1    
    60   28   58 1    
    61   29   30 1    
    62   29   59 1    
    63   29   60 1    
    64   30   31 1    
    65   30   61 1    
    66   30   62 1    
    67   31   63 1    
    68   31   64 1    
@<TRIPOS>SUBSTRUCTURE
     1 <0>         1 GROUP             0       ****    0 ROOT    
@<TRIPOS>MOLECULE
ZINC36783703
55   59    1
SMALL
USER_CHARGES


@<TRIPOS>ATOM
      1 C1          7.1328   13.1423    6.4520 C.3       1 <0>        -0.1914 
      2 C2          7.3913   14.0647    5.2460 C.3       1 <0>        -0.0697 
      3 N1          8.4113   13.5366    4.3041 N.pl3     1 <0>        -0.1439 
      4 C3          9.7276   13.8532    4.6377 C.ar      1 <0>         0.6003 
      5 O1         10.0316   14.4776    5.6550 O.2       1 <0>        -0.5634 
      6 C4         10.6798   13.3128    3.6674 C.ar      1 <0>        -0.0494 
      7 C5         12.0901   13.4036    3.6649 C.2       1 <0>        -0.1147 
      8 C6         12.6569   12.6324    2.6351 C.2       1 <0>        -0.0774 
      9 S1         11.4445   11.8535    1.6644 S.3       1 <0>         0.0232 
     10 C7         10.1916   12.5273    2.6337 C.ar      1 <0>         0.2982 
     11 N2          8.8838   12.2523    2.4062 N.2       1 <0>        -0.6358 
     12 C8          8.0134   12.7353    3.2260 C.ar      1 <0>         0.3653 
     13 S2          6.2705   12.3056    2.9485 S.3       1 <0>        -0.1487 
     14 C9          6.3758   10.9295    1.7456 C.3       1 <0>        -0.0379 
     15 C10         5.0367   10.2272    1.4517 C.2       1 <0>         0.4560 
     16 O2          4.0418   10.5673    2.1021 O.2       1 <0>        -0.5112 
     17 N3          4.9593    9.2502    0.5018 N.am      1 <0>        -0.1638 
     18 C11         3.6197    8.8535    0.0424 C.3       1 <0>        -0.0251 
     19 C12         3.8246    7.8553   -1.0814 C.3       1 <0>        -0.0952 
     20 C13         5.2696    8.0490   -1.4327 C.ar      1 <0>        -0.1331 
     21 C14         5.9113    8.8240   -0.4579 C.ar      1 <0>         0.0167 
     22 C15         7.3127    8.9170   -0.4783 C.ar      1 <0>        -0.1231 
     23 C16         8.0327    8.3430   -1.5280 C.ar      1 <0>        -0.1073 
     24 C17         7.3783    7.6266   -2.5284 C.ar      1 <0>        -0.1476 
     25 C18         5.9962    7.4590   -2.4685 C.ar      1 <0>        -0.0916 
     26 C19        14.1555   12.4919    2.3584 C.3       1 <0>        -0.1222 
     27 C20        14.9451   13.0073    3.5838 C.3       1 <0>        -0.0839 
     28 H1         14.8625   12.2595    4.3753 H         1 <0>         0.0771 
     29 C21        14.3777   14.3599    4.0648 C.3       1 <0>        -0.1287 
     30 C22        12.9505   14.2143    4.6369 C.3       1 <0>        -0.1400 
     31 C23        16.4383   13.1220    3.2221 C.3       1 <0>        -0.1711 
     32 H2          6.7974   12.1513    6.1430 H         1 <0>         0.0750 
     33 H3          8.0211   13.0251    7.0754 H         1 <0>         0.0750 
     34 H4          6.3537   13.5598    7.0894 H         1 <0>         0.0750 
     35 H5          6.4491   14.2482    4.7285 H         1 <0>         0.0966 
     36 H6          7.6691   15.0534    5.6141 H         1 <0>         0.0966 
     37 H7          6.8000   11.3265    0.8234 H         1 <0>         0.1224 
     38 H8          7.0713   10.1952    2.1529 H         1 <0>         0.1224 
     39 H9          2.8869    8.5815    0.8047 H         1 <0>         0.0842 
     40 H10         3.2089    9.7524   -0.4249 H         1 <0>         0.0842 
     41 H11         3.6646    6.8458   -0.6960 H         1 <0>         0.0915 
     42 H12         3.1095    7.9998   -1.8925 H         1 <0>         0.0915 
     43 H13         7.8870    9.4145    0.2867 H         1 <0>         0.1580 
     44 H14         9.1095    8.4327   -1.5461 H         1 <0>         0.1377 
     45 H15         7.9458    7.1690   -3.3268 H         1 <0>         0.1337 
     46 H16         5.5042    6.8481   -3.2117 H         1 <0>         0.1332 
     47 H17        14.4304   11.4540    2.1659 H         1 <0>         0.0774 
     48 H18        14.4327   13.0536    1.4679 H         1 <0>         0.0774 
     49 H19        15.0219   14.7679    4.8444 H         1 <0>         0.0703 
     50 H20        14.4236   15.0998    3.2647 H         1 <0>         0.0703 
     51 H21        12.5293   15.2028    4.8159 H         1 <0>         0.0918 
     52 H22        12.9809   13.7145    5.6062 H         1 <0>         0.0918 
     53 H23        16.5957   13.8508    2.4297 H         1 <0>         0.0613 
     54 H24        17.0438   13.4487    4.0645 H         1 <0>         0.0613 
     55 H25        16.8425   12.1673    2.8828 H         1 <0>         0.0613 
@<TRIPOS>BOND
     1    1    2 1    
     2    1   32 1    
     3    1   33 1    
     4    1   34 1    
     5    2    3 1    
     6    2   35 1    
     7    2   36 1    
     8    3   12 ar   
     9    3    4 ar   
    10    4    5 2    
    11    4    6 ar   
    12    6   10 ar   
    13    6    7 1    
    14    7   30 1    
    15    7    8 2    
    16    8    9 1    
    17    8   26 1    
    18    9   10 1    
    19   10   11 ar   
    20   11   12 ar   
    21   12   13 1    
    22   13   14 1    
    23   14   15 1    
    24   14   37 1    
    25   14   38 1    
    26   15   16 2    
    27   15   17 am   BACKBONE|DICT|INTERRES
    28   17   21 1    
    29   17   18 1    
    30   18   19 1    
    31   18   39 1    
    32   18   40 1    
    33   19   20 1    
    34   19   41 1    
    35   19   42 1    
    36   20   25 ar   
    37   20   21 ar   
    38   21   22 ar   
    39   22   23 ar   
    40   22   43 1    
    41   23   24 ar   
    42   23   44 1    
    43   24   25 ar   
    44   24   45 1    
    45   25   46 1    
    46   26   27 1    
    47   26   47 1    
    48   26   48 1    
    49   27   28 1    
    50   27   29 1    
    51   27   31 1    
    52   29   30 1    
    53   29   49 1    
    54   29   50 1    
    55   30   51 1    
    56   30   52 1    
    57   31   53 1    
    58   31   54 1    
    59   31   55 1    
@<TRIPOS>SUBSTRUCTURE
     1 <0>         1 GROUP             0       ****    0 ROOT    
@<TRIPOS>MOLECULE
ZINC04365520
60   63    1
SMALL
USER_CHARGES


@<TRIPOS>ATOM
      1 C1          5.4736   18.4677    0.6913 C.3       1 <0>         0.0890 
      2 N1          5.5960   18.2838    2.1390 N.pl3     1 <0>        -0.7571 
      3 C2          4.6543   19.0506    2.9566 C.3       1 <0>         0.0890 
      4 C3          6.1499   17.0724    2.6406 C.ar      1 <0>         0.3195 
      5 C4          5.8532   16.6169    3.9344 C.ar      1 <0>        -0.1953 
      6 C5          6.4172   15.4472    4.4324 C.ar      1 <0>        -0.0653 
      7 C6          7.3093   14.6940    3.6609 C.ar      1 <0>        -0.1421 
      8 C7          7.6055   15.1376    2.3659 C.ar      1 <0>        -0.0653 
      9 C8          7.0311   16.3030    1.8648 C.ar      1 <0>        -0.1953 
     10 C9          7.9961   13.4540    4.2924 C.3       1 <0>         0.3244 
     11 C10         9.3920   13.1915    3.7297 C.ar      1 <0>        -0.1395 
     12 C11         9.8574   12.6538    2.5247 C.ar      1 <0>        -0.0702 
     13 C12        11.2330   12.5999    2.2680 C.ar      1 <0>        -0.1624 
     14 C13        12.1749   13.0687    3.2060 C.ar      1 <0>         0.3024 
     15 C14        11.6821   13.5635    4.4240 C.ar      1 <0>        -0.1207 
     16 C15        10.3147   13.5805    4.6775 C.ar      1 <0>        -0.0770 
     17 C16         9.5975   13.9149    5.9057 C.2       1 <0>         0.6134 
     18 O1         10.0298   14.2536    7.0003 O.2       1 <0>        -0.5291 
     19 O2          8.2929   13.7600    5.6598 O.3       1 <0>        -0.3448 
     20 N2         13.5753   13.0536    2.9605 N.pl3     1 <0>        -0.7512 
     21 C17        14.1875   12.2535    1.9031 C.3       1 <0>         0.0854 
     22 C18        14.4994   13.6673    3.9119 C.3       1 <0>         0.0854 
     23 C19         7.0711   12.2200    4.2066 C.ar      1 <0>        -0.1421 
     24 C20         6.5536   11.8080    2.9740 C.ar      1 <0>        -0.0653 
     25 C21         5.6857   10.7212    2.8965 C.ar      1 <0>        -0.1953 
     26 C22         5.2936   10.0283    4.0514 C.ar      1 <0>         0.3195 
     27 C23         5.8176   10.4405    5.2818 C.ar      1 <0>        -0.1953 
     28 C24         6.6907   11.5190    5.3608 C.ar      1 <0>        -0.0653 
     29 N3          4.4061    8.9245    3.9891 N.pl3     1 <0>        -0.7571 
     30 C25         4.1206    8.2780    2.7108 C.3       1 <0>         0.0890 
     31 C26         3.3754    8.7852    5.0206 C.3       1 <0>         0.0890 
     32 H1          6.4314   18.3862    0.1823 H         1 <0>         0.0615 
     33 H2          4.8159   17.7055    0.2728 H         1 <0>         0.0615 
     34 H3          5.0536   19.4419    0.4404 H         1 <0>         0.0615 
     35 H4          3.7141   18.5081    3.0621 H         1 <0>         0.0615 
     36 H5          5.0490   19.2263    3.9575 H         1 <0>         0.0615 
     37 H6          4.4377   20.0243    2.5162 H         1 <0>         0.0615 
     38 H7          5.1783   17.1540    4.5812 H         1 <0>         0.1317 
     39 H8          6.1648   15.1322    5.4355 H         1 <0>         0.1386 
     40 H9          8.2842   14.5932    1.7293 H         1 <0>         0.1386 
     41 H10         7.3063   16.6032    0.8665 H         1 <0>         0.1317 
     42 H11         9.1725   12.2986    1.7691 H         1 <0>         0.1407 
     43 H12        11.5354   12.2094    1.3102 H         1 <0>         0.1366 
     44 H13        12.3510   13.8955    5.2027 H         1 <0>         0.1489 
     45 H14        14.8049   12.8875    1.2665 H         1 <0>         0.0640 
     46 H15        14.8398   11.4993    2.3440 H         1 <0>         0.0640 
     47 H16        13.4859   11.7264    1.2646 H         1 <0>         0.0640 
     48 H17        14.4320   13.1439    4.8653 H         1 <0>         0.0640 
     49 H18        15.5349   13.6263    3.5713 H         1 <0>         0.0640 
     50 H19        14.2394   14.7115    4.0890 H         1 <0>         0.0640 
     51 H20         6.8153   12.3325    2.0677 H         1 <0>         0.1386 
     52 H21         5.3068   10.4410    1.9264 H         1 <0>         0.1317 
     53 H22         5.5743    9.9158    6.1933 H         1 <0>         0.1317 
     54 H23         7.0581   11.7972    6.3381 H         1 <0>         0.1386 
     55 H24         5.0321    8.1430    2.1273 H         1 <0>         0.0615 
     56 H25         3.6766    7.2931    2.8605 H         1 <0>         0.0615 
     57 H26         3.4316    8.8829    2.1209 H         1 <0>         0.0615 
     58 H27         2.4241    9.1786    4.6619 H         1 <0>         0.0615 
     59 H28         3.2343    7.7317    5.2642 H         1 <0>         0.0615 
     60 H29         3.6003    9.2967    5.9565 H         1 <0>         0.0615 
@<TRIPOS>BOND
     1    1    2 1    
     2    1   32 1    
     3    1   33 1    
     4    1   34 1    
     5    2    3 1    
     6    2    4 1    
     7    3   35 1    
     8    3   36 1    
     9    3   37 1    
    10    4    9 ar   
    11    4    5 ar   
    12    5    6 ar   
    13    5   38 1    
    14    6    7 ar   
    15    6   39 1    
    16    7    8 ar   
    17    7   10 1    
    18    8    9 ar   
    19    8   40 1    
    20    9   41 1    
    21   10   19 1    
    22   10   11 1    
    23   10   23 1    
    24   11   16 ar   
    25   11   12 ar   
    26   12   13 ar   
    27   12   42 1    
    28   13   14 ar   
    29   13   43 1    
    30   14   15 ar   
    31   14   20 1    
    32   15   16 ar   
    33   15   44 1    
    34   16   17 1    
    35   17   18 2    
    36   17   19 1    
    37   20   21 1    
    38   20   22 1    
    39   21   45 1    
    40   21   46 1    
    41   21   47 1    
    42   22   48 1    
    43   22   49 1    
    44   22   50 1    
    45   23   28 ar   
    46   23   24 ar   
    47   24   25 ar   
    48   24   51 1    
    49   25   26 ar   
    50   25   52 1    
    51   26   27 ar   
    52   26   29 1    
    53   27   28 ar   
    54   27   53 1    
    55   28   54 1    
    56   29   30 1    
    57   29   31 1    
    58   30   55 1    
    59   30   56 1    
    60   30   57 1    
    61   31   58 1    
    62   31   59 1    
    63   31   60 1    
@<TRIPOS>SUBSTRUCTURE
     1 <0>         1 GROUP             0       ****    0 ROOT    
@<TRIPOS>MOLECULE
ZINC04078513
51   54    1
SMALL
USER_CHARGES


@<TRIPOS>ATOM
      1 C1         14.9094   13.4208    3.3853 C.3       1 <0>        -0.2222 
      2 C2         13.9261   12.5064    2.6536 C.3       1 <0>         0.1575 
      3 O1         12.6034   12.8246    3.0667 O.3       1 <0>        -0.3261 
      4 C3         11.5339   12.2536    2.4562 C.2       1 <0>         0.6247 
      5 O2         11.6258   11.4660    1.5134 O.2       1 <0>        -0.4231 
      6 C4         10.2172   12.7097    3.0087 C.ar      1 <0>        -0.2417 
      7 C5         10.1231   13.4588    4.1861 C.ar      1 <0>        -0.0908 
      8 C6          8.8820   13.8770    4.6461 C.ar      1 <0>        -0.0829 
      9 C7          7.7231   13.5566    3.9412 C.ar      1 <0>        -0.0225 
     10 C8          7.7561   12.7136    2.8055 C.ar      1 <0>         0.0775 
     11 C9          9.0368   12.3647    2.3399 C.ar      1 <0>        -0.0958 
     12 N1          6.5793   12.5024    2.0257 N.am      1 <0>        -0.1895 
     13 C10         5.3868   11.9631    2.4582 C.2       1 <0>         0.5372 
     14 O3          4.5002   11.5612    1.6935 O.2       1 <0>        -0.5006 
     15 C11         5.1375   11.7858    3.9466 C.ar      1 <0>        -0.0873 
     16 C12         4.4884   10.5980    4.3331 C.ar      1 <0>        -0.0907 
     17 C13         4.1455   10.3706    5.6652 C.ar      1 <0>        -0.1071 
     18 C14         4.4344   11.3299    6.6306 C.ar      1 <0>        -0.1217 
     19 C15         5.0664   12.5153    6.2655 C.ar      1 <0>        -0.0786 
     20 C16         5.4048   12.7542    4.9314 C.ar      1 <0>        -0.0114 
     21 S1          6.1986   14.3326    4.5472 S.3       1 <0>         0.2207 
     22 O4          5.4850   14.9260    3.3311 O.2       1 <0>        -0.4399 
     23 C17         6.7183   12.5408    0.5440 C.3       1 <0>         0.0360 
     24 C18         7.1549   11.2587   -0.1951 C.ar      1 <0>        -0.1023 
     25 C19         7.2388   10.0248    0.4715 C.ar      1 <0>        -0.0827 
     26 C20         7.6281    8.8714   -0.2053 C.ar      1 <0>        -0.1325 
     27 C21         7.9608    8.9311   -1.5532 C.ar      1 <0>        -0.1166 
     28 C22         7.8956   10.1476   -2.2276 C.ar      1 <0>        -0.1376 
     29 C23         7.4963   11.3125   -1.5624 C.ar      1 <0>        -0.0596 
     30 C24         7.4479   12.6058   -2.3654 C.3       1 <0>        -0.1291 
     31 H1         15.9368   13.1981    3.0966 H         1 <0>         0.0748 
     32 H2         14.7167   14.4722    3.1639 H         1 <0>         0.0748 
     33 H3         14.8309   13.2896    4.4636 H         1 <0>         0.0748 
     34 H4         14.0325   12.6431    1.5756 H         1 <0>         0.0477 
     35 H5         14.1458   11.4589    2.8786 H         1 <0>         0.0477 
     36 H6         11.0048   13.7387    4.7459 H         1 <0>         0.1525 
     37 H7          8.8265   14.4819    5.5379 H         1 <0>         0.1394 
     38 H8          9.1157   11.7852    1.4330 H         1 <0>         0.1595 
     39 H9          4.2383    9.8362    3.6063 H         1 <0>         0.1505 
     40 H10         3.6493    9.4545    5.9571 H         1 <0>         0.1386 
     41 H11         4.1679   11.1499    7.6639 H         1 <0>         0.1362 
     42 H12         5.2867   13.2470    7.0296 H         1 <0>         0.1318 
     43 H13         5.7963   12.9017    0.0842 H         1 <0>         0.0917 
     44 H14         7.4530   13.3132    0.3120 H         1 <0>         0.0917 
     45 H15         7.0088    9.9359    1.5222 H         1 <0>         0.1443 
     46 H16         7.6930    7.9321    0.3259 H         1 <0>         0.1303 
     47 H17         8.2754    8.0375   -2.0717 H         1 <0>         0.1258 
     48 H18         8.1703   10.1867   -3.2714 H         1 <0>         0.1255 
     49 H19         8.4381   13.0536   -2.3859 H         1 <0>         0.0670 
     50 H20         7.1483   12.4097   -3.3953 H         1 <0>         0.0670 
     51 H21         6.7283   13.3256   -1.9766 H         1 <0>         0.0670 
@<TRIPOS>BOND
     1    1    2 1    
     2    1   31 1    
     3    1   32 1    
     4    1   33 1    
     5    2    3 1    
     6    2   34 1    
     7    2   35 1    
     8    3    4 1    
     9    4    5 2    
    10    4    6 1    
    11    6   11 ar   
    12    6    7 ar   
    13    7    8 ar   
    14    7   36 1    
    15    8    9 ar   
    16    8   37 1    
    17    9   21 1    
    18    9   10 ar   
    19   10   11 ar   
    20   10   12 1    
    21   11   38 1    
    22   12   13 am   BACKBONE|DICT|INTERRES
    23   12   23 1    
    24   13   14 2    
    25   13   15 1    
    26   15   20 ar   
    27   15   16 ar   
    28   16   17 ar   
    29   16   39 1    
    30   17   18 ar   
    31   17   40 1    
    32   18   19 ar   
    33   18   41 1    
    34   19   20 ar   
    35   19   42 1    
    36   20   21 1    
    37   21   22 2    
    38   23   24 1    
    39   23   43 1    
    40   23   44 1    
    41   24   29 ar   
    42   24   25 ar   
    43   25   26 ar   
    44   25   45 1    
    45   26   27 ar   
    46   26   46 1    
    47   27   28 ar   
    48   27   47 1    
    49   28   29 ar   
    50   28   48 1    
    51   29   30 1    
    52   30   49 1    
    53   30   50 1    
    54   30   51 1    
@<TRIPOS>SUBSTRUCTURE
     1 <0>         1 GROUP             0       ****    0 ROOT    
@<TRIPOS>MOLECULE
ZINC39872870
49   53    1
SMALL
USER_CHARGES


@<TRIPOS>ATOM
      1 C1          4.4929   17.9881    6.3955 C.3       1 <0>        -0.2207 
      2 C2          4.9791   17.6370    4.9877 C.3       1 <0>         0.1966 
      3 O1          5.8679   16.5290    5.0847 O.3       1 <0>        -0.3709 
      4 C3          6.4315   16.0106    3.9360 C.ar      1 <0>         0.1611 
      5 C4          6.3228   16.5922    2.6622 C.ar      1 <0>        -0.1897 
      6 C5          6.9222   15.9896    1.5574 C.ar      1 <0>        -0.0982 
      7 C6          7.6318   14.8008    1.7119 C.ar      1 <0>        -0.1382 
      8 C7          7.7670   14.2139    2.9762 C.ar      1 <0>        -0.0610 
      9 C8          7.1598   14.8275    4.0762 C.ar      1 <0>        -0.1282 
     10 C9          8.5138   12.8872    3.1692 C.3       1 <0>         0.1459 
     11 H1          8.1661   12.4629    4.1127 H         1 <0>         0.1088 
     12 C10         9.9975   13.0247    3.1974 C.2       1 <0>        -0.5002 
     13 C11        10.8516   13.8553    4.0373 C.2       1 <0>         0.8680 
     14 O2         10.4338   14.6530    4.8733 O.2       1 <0>        -0.5864 
     15 C12        12.3114   13.6636    3.7574 C.ar      1 <0>        -0.3700 
     16 C13        13.2919   14.3918    4.4462 C.ar      1 <0>        -0.0406 
     17 C14        14.6390   14.2521    4.1132 C.ar      1 <0>        -0.2522 
     18 C15        15.0340   13.3498    3.1278 C.ar      1 <0>        -0.0034 
     19 C16        14.0731   12.5956    2.4601 C.ar      1 <0>        -0.4278 
     20 C17        12.7232   12.7550    2.7633 C.ar      1 <0>         0.6026 
     21 O3         11.8225   12.0225    2.0120 O.3       1 <0>        -0.3518 
     22 C18        10.5048   12.2050    2.2775 C.2       1 <0>         0.2374 
     23 C19         9.4749   11.4836    1.5639 C.2       1 <0>         0.4803 
     24 O4          9.6410   10.6620    0.6627 O.2       1 <0>        -0.4670 
     25 N1          8.2872   11.8965    2.1047 N.am      1 <0>        -0.2189 
     26 C20         7.0018   11.3984    1.7511 C.ar      1 <0>        -0.0069 
     27 C21         5.9903   11.3694    2.7229 C.ar      1 <0>        -0.0868 
     28 C22         4.7205   10.8944    2.4085 C.ar      1 <0>        -0.1622 
     29 C23         4.4465   10.4513    1.1189 C.ar      1 <0>         0.2210 
     30 C24         5.4328   10.4805    0.1396 C.ar      1 <0>        -0.1622 
     31 C25         6.7049   10.9527    0.4511 C.ar      1 <0>        -0.0868 
     32 F1          3.2123    9.9928    0.8136 F         1 <0>        -0.2163 
     33 H2          5.3313   18.2533    7.0415 H         1 <0>         0.0748 
     34 H3          3.8057   18.8341    6.3739 H         1 <0>         0.0748 
     35 H4          3.9731   17.1445    6.8518 H         1 <0>         0.0748 
     36 H5          4.1280   17.3879    4.3513 H         1 <0>         0.0347 
     37 H6          5.4848   18.5006    4.5535 H         1 <0>         0.0347 
     38 H7          5.7720   17.5072    2.5098 H         1 <0>         0.1336 
     39 H8          6.8279   16.4393    0.5794 H         1 <0>         0.1353 
     40 H9          8.0772   14.3340    0.8452 H         1 <0>         0.1335 
     41 H10         7.2440   14.3814    5.0568 H         1 <0>         0.1450 
     42 H11        13.0232   15.0742    5.2413 H         1 <0>         0.1611 
     43 H12        15.3845   14.8313    4.6394 H         1 <0>         0.1662 
     44 H13        16.0809   13.2361    2.8854 H         1 <0>         0.1521 
     45 H14        14.3581   11.8906    1.6922 H         1 <0>         0.2105 
     46 H15         6.1748   11.6960    3.7350 H         1 <0>         0.1463 
     47 H16         3.9491   10.8650    3.1631 H         1 <0>         0.1506 
     48 H17         5.2103   10.1390   -0.8606 H         1 <0>         0.1506 
     49 H18         7.4437   10.9791   -0.3352 H         1 <0>         0.1463 
@<TRIPOS>BOND
     1    1    2 1    
     2    1   33 1    
     3    1   34 1    
     4    1   35 1    
     5    2    3 1    
     6    2   36 1    
     7    2   37 1    
     8    3    4 1    
     9    4    9 ar   
    10    4    5 ar   
    11    5    6 ar   
    12    5   38 1    
    13    6    7 ar   
    14    6   39 1    
    15    7    8 ar   
    16    7   40 1    
    17    8    9 ar   
    18    8   10 1    
    19    9   41 1    
    20   10   11 1    
    21   10   25 1    
    22   10   12 1    
    23   12   22 2    
    24   12   13 1    
    25   13   14 2    
    26   13   15 1    
    27   15   20 ar   
    28   15   16 ar   
    29   16   17 ar   
    30   16   42 1    
    31   17   18 ar   
    32   17   43 1    
    33   18   19 ar   
    34   18   44 1    
    35   19   20 ar   
    36   19   45 1    
    37   20   21 1    
    38   21   22 1    
    39   22   23 1    
    40   23   24 2    
    41   23   25 am   BACKBONE|DICT|INTERRES
    42   25   26 1    
    43   26   31 ar   
    44   26   27 ar   
    45   27   28 ar   
    46   27   46 1    
    47   28   29 ar   
    48   28   47 1    
    49   29   30 ar   
    50   29   32 1    
    51   30   31 ar   
    52   30   48 1    
    53   31   49 1    
@<TRIPOS>SUBSTRUCTURE
     1 <0>         1 GROUP             0       ****    0 ROOT    
@<TRIPOS>MOLECULE
ZINC41309827
57   60    1
SMALL
USER_CHARGES


@<TRIPOS>ATOM
      1 C1          5.5260   17.5836   -0.2028 C.3       1 <0>        -0.1301 
      2 C2          5.8244   16.3288    0.5987 C.ar      1 <0>        -0.0693 
      3 C3          7.1451   15.9626    0.8645 C.ar      1 <0>        -0.1292 
      4 C4          7.4094   14.8007    1.5828 C.ar      1 <0>        -0.1093 
      5 C5          6.3586   14.0102    2.0537 C.ar      1 <0>        -0.1249 
      6 C6          5.0385   14.3747    1.7811 C.ar      1 <0>        -0.1093 
      7 C7          4.7718   15.5357    1.0585 C.ar      1 <0>        -0.1292 
      8 C8          6.6572   12.7203    2.8110 C.3       1 <0>         0.0537 
      9 N1          6.6519   12.8720    4.2837 N.am      1 <0>        -0.2971 
     10 C9          5.3036   12.5789    4.8510 C.3       1 <0>         0.0642 
     11 H1          4.6945   12.0540    4.1122 H         1 <0>         0.1084 
     12 C10         5.3445   11.6118    6.0696 C.3       1 <0>        -0.1494 
     13 C11         3.9243   11.4697    6.6415 C.3       1 <0>        -0.3693 
     14 S1          3.1600   13.1702    6.4449 S.o2      1 <0>         1.0844 
     15 O1          3.2064   13.9197    7.7036 O.2       1 <0>        -0.5531 
     16 O2          1.9036   13.0454    5.7002 O.2       1 <0>        -0.5531 
     17 C12         4.4950   13.8174    5.3010 C.3       1 <0>        -0.4098 
     18 C13         7.6598   13.4578    5.0124 C.2       1 <0>         0.4627 
     19 O3          7.4880   13.8696    6.1616 O.2       1 <0>        -0.4935 
     20 C14         9.0176   13.5617    4.4887 C.2       1 <0>         0.1436 
     21 C15        10.1068   14.2074    5.0716 C.2       1 <0>        -0.5051 
     22 C16        11.2647   13.8548    4.3161 C.ar      1 <0>         0.2844 
     23 C17        12.6453   14.0793    4.4092 C.ar      1 <0>        -0.3171 
     24 C18        13.5024   13.4524    3.4919 C.ar      1 <0>        -0.1058 
     25 C19        12.9755   12.6537    2.4641 C.ar      1 <0>        -0.1198 
     26 C20        11.6031   12.4526    2.3162 C.ar      1 <0>        -0.3210 
     27 C21        10.7735   13.0527    3.2670 C.ar      1 <0>         0.3150 
     28 O4          9.4252   12.8717    3.3807 O.3       1 <0>        -0.2753 
     29 C22        15.0166   13.5983    3.6785 C.3       1 <0>        -0.0385 
     30 C23        15.7414   12.2515    3.6627 C.3       1 <0>        -0.1671 
     31 C24        15.6797   14.5896    2.7278 C.3       1 <0>        -0.1671 
     32 H2          4.9144   18.2690    0.3858 H         1 <0>         0.0722 
     33 H3          6.4321   18.1074   -0.5090 H         1 <0>         0.0722 
     34 H4          4.9604   17.3283   -1.1000 H         1 <0>         0.0722 
     35 H5          7.9648   16.5645    0.4991 H         1 <0>         0.1360 
     36 H6          8.4314   14.5119    1.7650 H         1 <0>         0.1340 
     37 H7          4.2191   13.7594    2.1241 H         1 <0>         0.1340 
     38 H8          3.7478   15.8105    0.8505 H         1 <0>         0.1360 
     39 H9          5.9161   11.9788    2.5088 H         1 <0>         0.0897 
     40 H10         7.5737   12.2832    2.4279 H         1 <0>         0.0897 
     41 H11         5.7584   10.6421    5.7860 H         1 <0>         0.1047 
     42 H12         6.0081   11.9813    6.8538 H         1 <0>         0.1047 
     43 H13         3.3576   10.7854    6.0106 H         1 <0>         0.1794 
     44 H14         3.8200   11.1148    7.6676 H         1 <0>         0.1794 
     45 H15         5.1242   14.3851    5.9834 H         1 <0>         0.1757 
     46 H16         4.1545   14.5443    4.5659 H         1 <0>         0.1757 
     47 H17        10.0496   14.7794    5.9850 H         1 <0>         0.2570 
     48 H18        13.0450   14.6739    5.2166 H         1 <0>         0.2025 
     49 H19        13.6389   12.1660    1.7634 H         1 <0>         0.1613 
     50 H20        11.2057   11.8163    1.5384 H         1 <0>         0.1993 
     51 H21        15.1647   14.0333    4.6660 H         1 <0>         0.0731 
     52 H22        15.6503   11.7473    2.7012 H         1 <0>         0.0630 
     53 H23        16.8076   12.3640    3.8632 H         1 <0>         0.0630 
     54 H24        15.3137   11.6033    4.4311 H         1 <0>         0.0630 
     55 H25        15.1928   15.5474    2.8642 H         1 <0>         0.0630 
     56 H26        16.7346   14.7264    2.9677 H         1 <0>         0.0630 
     57 H27        15.6181   14.2778    1.6849 H         1 <0>         0.0630 
@<TRIPOS>BOND
     1    1    2 1    
     2    1   32 1    
     3    1   33 1    
     4    1   34 1    
     5    2    7 ar   
     6    2    3 ar   
     7    3    4 ar   
     8    3   35 1    
     9    4    5 ar   
    10    4   36 1    
    11    5    6 ar   
    12    5    8 1    
    13    6    7 ar   
    14    6   37 1    
    15    7   38 1    
    16    8    9 1    
    17    8   39 1    
    18    8   40 1    
    19    9   10 1    
    20    9   18 am   BACKBONE|DICT|INTERRES
    21   10   11 1    
    22   10   17 1    
    23   10   12 1    
    24   12   13 1    
    25   12   41 1    
    26   12   42 1    
    27   13   14 1    
    28   13   43 1    
    29   13   44 1    
    30   14   15 2    
    31   14   16 2    
    32   14   17 1    
    33   17   45 1    
    34   17   46 1    
    35   18   19 2    
    36   18   20 1    
    37   20   28 1    
    38   20   21 2    
    39   21   22 1    
    40   21   47 1    
    41   22   27 ar   
    42   22   23 ar   
    43   23   24 ar   
    44   23   48 1    
    45   24   25 ar   
    46   24   29 1    
    47   25   26 ar   
    48   25   49 1    
    49   26   27 ar   
    50   26   50 1    
    51   27   28 1    
    52   29   30 1    
    53   29   31 1    
    54   29   51 1    
    55   30   52 1    
    56   30   53 1    
    57   30   54 1    
    58   31   55 1    
    59   31   56 1    
    60   31   57 1    
@<TRIPOS>SUBSTRUCTURE
     1 <0>         1 GROUP             0       ****    0 ROOT    
@<TRIPOS>MOLECULE
ZINC44434454
47   50    1
SMALL
USER_CHARGES


@<TRIPOS>ATOM
      1 C1          9.7912    6.9261   -4.7324 C.3       1 <0>        -0.1300 
      2 C2          9.2194    7.9317   -3.7499 C.ar      1 <0>        -0.0616 
      3 C3          8.9521    7.5502   -2.4371 C.ar      1 <0>        -0.1363 
      4 C4          8.4302    8.4728   -1.5350 C.ar      1 <0>        -0.0881 
      5 C5          8.1732    9.7972   -1.9148 C.ar      1 <0>        -0.0406 
      6 C6          8.4118   10.1712   -3.2543 C.ar      1 <0>        -0.0370 
      7 C7          8.9344    9.2374   -4.1560 C.ar      1 <0>        -0.1324 
      8 C8          8.0859   11.5668   -3.7670 C.3       1 <0>        -0.1328 
      9 C9          7.6933   10.7471   -0.8504 C.2       1 <0>         0.1317 
     10 N1          8.1787   11.9703   -0.7390 N.2       1 <0>        -0.2419 
     11 C10         7.5682   12.4213    0.3209 C.2       1 <0>         0.2475 
     12 O1          6.6910   11.5398    0.8594 O.3       1 <0>        -0.2135 
     13 N2          6.8024   10.4010    0.0604 N.2       1 <0>        -0.1134 
     14 C11         7.7351   13.7983    0.9434 C.3       1 <0>         0.0603 
     15 H1          8.7030   14.1294    0.5717 H         1 <0>         0.1188 
     16 C12         6.6429   14.7814    0.5582 C.3       1 <0>        -0.1404 
     17 C13         6.6426   15.7687    1.7077 C.3       1 <0>        -0.1746 
     18 C14         7.2258   15.0182    2.9017 C.2       1 <0>         0.4748 
     19 O2          7.2336   15.4377    4.0575 O.2       1 <0>        -0.5059 
     20 N3          7.7285   13.8584    2.4116 N.am      1 <0>        -0.3357 
     21 C15         8.4826   12.9243    3.2587 C.3       1 <0>         0.0565 
     22 C16         9.9953   13.0105    3.1128 C.ar      1 <0>        -0.1420 
     23 C17        10.6421   12.1673    2.2027 C.ar      1 <0>        -0.0813 
     24 C18        12.0318   12.1750    2.1037 C.ar      1 <0>        -0.1195 
     25 C19        12.7874   13.0099    2.9242 C.ar      1 <0>         0.0631 
     26 C20        12.1494   13.8513    3.8372 C.ar      1 <0>        -0.1443 
     27 C21        10.7567   13.8539    3.9335 C.ar      1 <0>         0.2211 
     28 F1         10.1577   14.6527    4.8457 F         1 <0>        -0.2088 
     29 Br1        14.6885   12.9955    2.7984 Br        1 <0>        -0.1390 
     30 H2         10.8783    6.9006   -4.6630 H         1 <0>         0.0721 
     31 H3          9.4065    5.9259   -4.5279 H         1 <0>         0.0721 
     32 H4          9.5084    7.1664   -5.7585 H         1 <0>         0.0721 
     33 H5          9.1583    6.5420   -2.1076 H         1 <0>         0.1359 
     34 H6          8.2570    8.1558   -0.5177 H         1 <0>         0.1375 
     35 H7          9.1290    9.5312   -5.1769 H         1 <0>         0.1358 
     36 H8          8.8301   12.2707   -3.4000 H         1 <0>         0.0744 
     37 H9          8.0737   11.6142   -4.8554 H         1 <0>         0.0744 
     38 H10         7.1051   11.8897   -3.4167 H         1 <0>         0.0744 
     39 H11         6.8314   15.2728   -0.3946 H         1 <0>         0.0957 
     40 H12         5.6718   14.2836    0.4974 H         1 <0>         0.0957 
     41 H13         7.2943   16.6165    1.4951 H         1 <0>         0.1148 
     42 H14         5.6471   16.1565    1.9223 H         1 <0>         0.1148 
     43 H15         8.2328   13.0779    4.3107 H         1 <0>         0.1028 
     44 H16         8.1593   11.9043    3.0439 H         1 <0>         0.1028 
     45 H17        10.0739   11.4919    1.5778 H         1 <0>         0.1563 
     46 H18        12.5229   11.5126    1.4038 H         1 <0>         0.1522 
     47 H19        12.7328   14.4949    4.4782 H         1 <0>         0.1613 
@<TRIPOS>BOND
     1    1    2 1    
     2    1   30 1    
     3    1   31 1    
     4    1   32 1    
     5    2    7 ar   
     6    2    3 ar   
     7    3    4 ar   
     8    3   33 1    
     9    4    5 ar   
    10    4   34 1    
    11    5    6 ar   
    12    5    9 1    
    13    6    7 ar   
    14    6    8 1    
    15    7   35 1    
    16    8   36 1    
    17    8   37 1    
    18    8   38 1    
    19    9   13 2    
    20    9   10 1    
    21   10   11 2    
    22   11   12 1    
    23   11   14 1    
    24   12   13 1    
    25   14   15 1    
    26   14   20 1    
    27   14   16 1    
    28   16   17 1    
    29   16   39 1    
    30   16   40 1    
    31   17   18 1    
    32   17   41 1    
    33   17   42 1    
    34   18   19 2    
    35   18   20 am   BACKBONE|DICT|INTERRES
    36   20   21 1    
    37   21   22 1    
    38   21   43 1    
    39   21   44 1    
    40   22   27 ar   
    41   22   23 ar   
    42   23   24 ar   
    43   23   45 1    
    44   24   25 ar   
    45   24   46 1    
    46   25   26 ar   
    47   25   29 1    
    48   26   27 ar   
    49   26   47 1    
    50   27   28 1    
@<TRIPOS>SUBSTRUCTURE
     1 <0>         1 GROUP             0       ****    0 ROOT    
@<TRIPOS>MOLECULE
ZINC59484468
41   43    1
SMALL
USER_CHARGES


@<TRIPOS>ATOM
      1 C1         17.5485   13.4642    2.9423 C.3       1 <0>        -0.1336 
      2 C2         16.0369   13.5304    3.0656 C.ar      1 <0>        -0.0492 
      3 C3         15.4549   14.4653    3.9220 C.ar      1 <0>        -0.1422 
      4 C4         14.0791   14.4571    4.1253 C.ar      1 <0>        -0.0741 
      5 C5         13.2710   13.5418    3.4372 C.ar      1 <0>        -0.0419 
      6 C6         13.8531   12.6538    2.5266 C.ar      1 <0>        -0.0741 
      7 C7         15.2333   12.6462    2.3456 C.ar      1 <0>        -0.1422 
      8 C8         11.8196   13.5269    3.6647 C.2       1 <0>         0.4397 
      9 N1         10.8921   13.1977    2.8659 N.2       1 <0>        -0.5264 
     10 C9          9.7314   13.4134    3.5269 C.2       1 <0>         0.0016 
     11 C10         8.4460   13.3159    3.1205 C.2       1 <0>         0.0522 
     12 C11         7.9583   12.9097    1.7898 C.ar      1 <0>        -0.0961 
     13 C12         6.8834   13.6079    1.2326 C.ar      1 <0>        -0.1594 
     14 C13         6.3701   13.2700   -0.0311 C.ar      1 <0>         0.1337 
     15 C14         6.9470   12.1994   -0.7295 C.ar      1 <0>         0.1442 
     16 C15         8.0164   11.4913   -0.1719 C.ar      1 <0>        -0.0441 
     17 C16         8.5303   11.8548    1.0728 C.ar      1 <0>        -0.0742 
     18 I1          8.8354    9.8533   -1.1848 I         1 <0>        -0.0519 
     19 O1          6.4524   11.8170   -1.9542 O.3       1 <0>        -0.3538 
     20 C17         6.9097   12.6061   -3.0444 C.3       1 <0>         0.1351 
     21 O2          5.3142   13.9300   -0.6352 O.3       1 <0>        -0.3516 
     22 C18         4.6932   15.0219    0.0327 C.3       1 <0>         0.1344 
     23 C19        10.0865   13.8537    4.8638 C.2       1 <0>         0.4204 
     24 O3          9.3473   14.1426    5.8049 O.2       1 <0>        -0.3914 
     25 O4         11.3959   13.9200    4.8932 O.3       1 <0>        -0.2816 
     26 H1         17.9710   14.4668    2.8639 H         1 <0>         0.0748 
     27 H2         17.9787   12.9986    3.8293 H         1 <0>         0.0748 
     28 H3         17.8650   12.8993    2.0650 H         1 <0>         0.0748 
     29 H4         16.0721   15.1608    4.4719 H         1 <0>         0.1399 
     30 H5         13.6539   15.1640    4.8251 H         1 <0>         0.1505 
     31 H6         13.2468   11.9443    1.9768 H         1 <0>         0.1505 
     32 H7         15.6685   11.9348    1.6607 H         1 <0>         0.1399 
     33 H8          7.6626   13.5478    3.8301 H         1 <0>         0.1584 
     34 H9          6.4523   14.4220    1.7947 H         1 <0>         0.1408 
     35 H10         9.3554   11.2945    1.4912 H         1 <0>         0.1658 
     36 H11         6.4303   13.5860   -3.0420 H         1 <0>         0.0413 
     37 H12         7.9946   12.7361   -3.0355 H         1 <0>         0.0413 
     38 H13         6.6454   12.1148   -3.9806 H         1 <0>         0.0413 
     39 H14         4.2588   14.7142    0.9849 H         1 <0>         0.0441 
     40 H15         5.3961   15.8389    0.2034 H         1 <0>         0.0441 
     41 H16         3.8844   15.4075   -0.5882 H         1 <0>         0.0441 
@<TRIPOS>BOND
     1    1    2 1    
     2    1   26 1    
     3    1   27 1    
     4    1   28 1    
     5    2    7 ar   
     6    2    3 ar   
     7    3    4 ar   
     8    3   29 1    
     9    4    5 ar   
    10    4   30 1    
    11    5    6 ar   
    12    5    8 1    
    13    6    7 ar   
    14    6   31 1    
    15    7   32 1    
    16    8   25 1    
    17    8    9 2    
    18    9   10 1    
    19   10   11 2    
    20   10   23 1    
    21   11   12 1    
    22   11   33 1    
    23   12   17 ar   
    24   12   13 ar   
    25   13   14 ar   
    26   13   34 1    
    27   14   15 ar   
    28   14   21 1    
    29   15   16 ar   
    30   15   19 1    
    31   16   17 ar   
    32   16   18 1    
    33   17   35 1    
    34   19   20 1    
    35   20   36 1    
    36   20   37 1    
    37   20   38 1    
    38   21   22 1    
    39   22   39 1    
    40   22   40 1    
    41   22   41 1    
    42   23   24 2    
    43   23   25 1    
@<TRIPOS>SUBSTRUCTURE
     1 <0>         1 GROUP             0       ****    0 ROOT    
@<TRIPOS>MOLECULE
ZINC41649537
53   57    1
SMALL
USER_CHARGES


@<TRIPOS>ATOM
      1 C1          2.6650   10.6775    4.4450 C.3       1 <0>        -0.1817 
      2 C2          3.2586   11.4913    5.5665 C.2       1 <0>         0.0894 
      3 C3          2.8543   11.7967    6.8535 C.2       1 <0>        -0.2166 
      4 C4          3.8680   12.5711    7.4165 C.2       1 <0>        -0.1565 
      5 C5          4.8685   12.6992    6.4645 C.2       1 <0>         0.0615 
      6 O1          4.4759   12.0472    5.3356 O.3       1 <0>        -0.1651 
      7 C6          6.1863   13.3040    6.5274 C.2       1 <0>        -0.1241 
      8 C7          7.1712   13.2092    5.6163 C.2       1 <0>        -0.0019 
      9 C8          8.5348   13.7291    5.7291 C.2       1 <0>         0.5066 
     10 O2          9.0183   14.2931    6.7107 O.2       1 <0>        -0.4358 
     11 C9          9.1470   13.3880    4.4418 C.ar      1 <0>        -0.3081 
     12 C10        10.4146   13.5911    3.8822 C.ar      1 <0>         0.0586 
     13 C11        10.6769   13.0478    2.6174 C.ar      1 <0>        -0.1984 
     14 C12         9.6953   12.3053    1.9521 C.ar      1 <0>         0.2116 
     15 C13         8.4257   12.1018    2.5120 C.ar      1 <0>        -0.1806 
     16 C14         8.1913   12.6726    3.7545 C.ar      1 <0>         0.1987 
     17 O3          7.0240   12.5593    4.4397 O.3       1 <0>        -0.2108 
     18 C15         7.4213   11.1917    1.8116 C.3       1 <0>         0.1903 
     19 N1          7.8810   10.6916    0.5035 N.3       1 <0>        -0.6504 
     20 C16         9.3367   10.5778    0.4711 C.3       1 <0>         0.1022 
     21 O4         10.0196   11.7744    0.7237 O.3       1 <0>        -0.2835 
     22 C17         7.1627    9.4434    0.2132 C.3       1 <0>         0.1531 
     23 C18         7.4947    8.8215   -1.1607 C.3       1 <0>        -0.0873 
     24 C19         6.8074    7.4739   -1.3521 C.ar      1 <0>        -0.0754 
     25 C20         7.5209    6.3040   -1.0611 C.ar      1 <0>        -0.1159 
     26 C21         6.9236    5.0531   -1.2135 C.ar      1 <0>        -0.1259 
     27 C22         5.6050    4.9603   -1.6551 C.ar      1 <0>        -0.1209 
     28 C23         4.8840    6.1191   -1.9410 C.ar      1 <0>        -0.1198 
     29 C24         5.4763    7.3751   -1.7917 C.ar      1 <0>         0.0769 
     30 Cl1         4.5333    8.7807   -2.1518 Cl        1 <0>        -0.1588 
     31 C25        11.5032   14.3596    4.6043 C.3       1 <0>        -0.1333 
     32 H1          3.2081    9.7435    4.3080 H         1 <0>         0.0838 
     33 H2          1.6256   10.4155    4.6459 H         1 <0>         0.0838 
     34 H3          2.6902   11.2163    3.4990 H         1 <0>         0.0838 
     35 H4          1.9491   11.4604    7.3388 H         1 <0>         0.1751 
     36 H5          3.9046   12.9496    8.4283 H         1 <0>         0.1798 
     37 H6          6.3656   13.8534    7.4434 H         1 <0>         0.1762 
     38 H7         11.6427   13.1772    2.1513 H         1 <0>         0.1552 
     39 H8          7.2285   10.3606    2.4939 H         1 <0>         0.0811 
     40 H9          6.4746   11.7175    1.6762 H         1 <0>         0.0811 
     41 H10         9.6574    9.8539    1.2240 H         1 <0>         0.0867 
     42 H11         9.6654   10.2545   -0.5124 H         1 <0>         0.0867 
     43 H12         7.3767    8.7131    0.9977 H         1 <0>         0.0722 
     44 H13         6.0928    9.6579    0.2404 H         1 <0>         0.0722 
     45 H14         7.2217    9.4994   -1.9701 H         1 <0>         0.0881 
     46 H15         8.5648    8.6492   -1.2699 H         1 <0>         0.0881 
     47 H16         8.5419    6.3619   -0.7089 H         1 <0>         0.1400 
     48 H17         7.4825    4.1556   -0.9877 H         1 <0>         0.1362 
     49 H18         5.1410    3.9922   -1.7716 H         1 <0>         0.1378 
     50 H19         3.8610    6.0413   -2.2785 H         1 <0>         0.1450 
     51 H20        11.7657   13.8527    5.5338 H         1 <0>         0.0830 
     52 H21        12.4048   14.4776    4.0029 H         1 <0>         0.0830 
     53 H22        11.1319   15.3504    4.8617 H         1 <0>         0.0830 
@<TRIPOS>BOND
     1    1    2 1    
     2    1   32 1    
     3    1   33 1    
     4    1   34 1    
     5    2    6 1    
     6    2    3 2    
     7    3    4 1    
     8    3   35 1    
     9    4    5 2    
    10    4   36 1    
    11    5    6 1    
    12    5    7 1    
    13    7    8 2    
    14    7   37 1    
    15    8   17 1    
    16    8    9 1    
    17    9   10 2    
    18    9   11 1    
    19   11   16 ar   
    20   11   12 ar   
    21   12   13 ar   
    22   12   31 1    
    23   13   14 ar   
    24   13   38 1    
    25   14   21 1    
    26   14   15 ar   
    27   15   16 ar   
    28   15   18 1    
    29   16   17 1    
    30   18   19 1    
    31   18   39 1    
    32   18   40 1    
    33   19   20 1    
    34   19   22 1    
    35   20   21 1    
    36   20   41 1    
    37   20   42 1    
    38   22   23 1    
    39   22   43 1    
    40   22   44 1    
    41   23   24 1    
    42   23   45 1    
    43   23   46 1    
    44   24   29 ar   
    45   24   25 ar   
    46   25   26 ar   
    47   25   47 1    
    48   26   27 ar   
    49   26   48 1    
    50   27   28 ar   
    51   27   49 1    
    52   28   29 ar   
    53   28   50 1    
    54   29   30 1    
    55   31   51 1    
    56   31   52 1    
    57   31   53 1    
@<TRIPOS>SUBSTRUCTURE
     1 <0>         1 GROUP             0       ****    0 ROOT    
@<TRIPOS>MOLECULE
ZINC18177390
50   54    1
SMALL
USER_CHARGES


@<TRIPOS>ATOM
      1 C1          4.9175   18.7186    3.4293 C.3       1 <0>        -0.0731 
      2 S1          6.0464   18.2995    2.0693 S.3       1 <0>        -0.3596 
      3 C2          6.5034   16.5935    2.2106 C.ar      1 <0>         0.1218 
      4 C3          6.1746   15.8434    3.3413 C.ar      1 <0>        -0.1255 
      5 C4          6.5699   14.5115    3.4271 C.ar      1 <0>        -0.0863 
      6 C5          7.2949   13.9216    2.3878 C.ar      1 <0>        -0.0956 
      7 C6          7.6009   14.6740    1.2487 C.ar      1 <0>        -0.0863 
      8 C7          7.2128   16.0076    1.1640 C.ar      1 <0>        -0.1255 
      9 C8          7.7851   12.4720    2.5529 C.3       1 <0>         0.1020 
     10 H1          7.5485   12.1496    3.5686 H         1 <0>         0.0742 
     11 C9          7.3296   11.3511    1.5906 C.3       1 <0>        -0.0980 
     12 H2          6.9404   10.4945    2.1446 H         1 <0>         0.1005 
     13 C10         8.5604   10.9347    0.8375 C.3       1 <0>         0.1019 
     14 H3          8.9430    9.9695    1.1786 H         1 <0>         0.1114 
     15 C11         8.1240   10.8814   -0.6151 C.2       1 <0>         0.3604 
     16 O1          8.8278   10.4624   -1.5350 O.2       1 <0>        -0.4677 
     17 N1          6.8674   11.4035   -0.7026 N.am      1 <0>         0.0156 
     18 C12         6.3258   11.7204    0.5061 C.2       1 <0>         0.3800 
     19 O2          5.2066   12.1856    0.7301 O.2       1 <0>        -0.4742 
     20 C13         6.1901   11.5905   -1.9280 C.ar      1 <0>        -0.0263 
     21 C14         6.7388   12.4340   -2.9037 C.ar      1 <0>        -0.0775 
     22 C15         6.0715   12.6235   -4.1109 C.ar      1 <0>        -0.1629 
     23 C16         4.8643   11.9709   -4.3445 C.ar      1 <0>         0.2265 
     24 C17         4.3101   11.1321   -3.3796 C.ar      1 <0>        -0.1629 
     25 C18         4.9716   10.9407   -2.1693 C.ar      1 <0>        -0.0775 
     26 F1          4.2209   12.1529   -5.5191 F         1 <0>        -0.2147 
     27 O3          9.4926   11.9766    1.1037 O.3       1 <0>        -0.2089 
     28 N2          9.2313   12.3854    2.4547 N.pl3     1 <0>        -0.3382 
     29 C19        10.3053   12.9372    3.1679 C.ar      1 <0>         0.1452 
     30 C20        10.0520   13.4407    4.4482 C.ar      1 <0>        -0.1106 
     31 C21        11.0980   13.8542    5.2600 C.ar      1 <0>        -0.1260 
     32 C22        12.4008   13.8544    4.7683 C.ar      1 <0>        -0.1207 
     33 C23        12.6657   13.4131    3.4754 C.ar      1 <0>        -0.1260 
     34 C24        11.6218   12.9469    2.6800 C.ar      1 <0>        -0.1106 
     35 H4          4.6009   19.7580    3.3404 H         1 <0>         0.0935 
     36 H5          4.0280   18.0882    3.3952 H         1 <0>         0.0935 
     37 H6          5.4050   18.5967    4.3969 H         1 <0>         0.0935 
     38 H7          5.6233   16.2756    4.1616 H         1 <0>         0.1391 
     39 H8          6.3211   13.9426    4.3115 H         1 <0>         0.1372 
     40 H9          8.1401   14.2249    0.4284 H         1 <0>         0.1372 
     41 H10         7.4634   16.5870    0.2882 H         1 <0>         0.1391 
     42 H11         7.6773   12.9448   -2.7337 H         1 <0>         0.1467 
     43 H12         6.4953   13.2771   -4.8595 H         1 <0>         0.1518 
     44 H13         3.3712   10.6343   -3.5724 H         1 <0>         0.1518 
     45 H14         4.5350   10.2920   -1.4224 H         1 <0>         0.1467 
     46 H15         9.0494   13.4404    4.8495 H         1 <0>         0.1402 
     47 H16        10.8861   14.1852    6.2655 H         1 <0>         0.1360 
     48 H17        13.2114   14.1959    5.3966 H         1 <0>         0.1329 
     49 H18        13.6778   13.4061    3.0979 H         1 <0>         0.1360 
     50 H19        11.8502   12.5654    1.6954 H         1 <0>         0.1402 
@<TRIPOS>BOND
     1    1    2 1    
     2    1   35 1    
     3    1   36 1    
     4    1   37 1    
     5    2    3 1    
     6    3    8 ar   
     7    3    4 ar   
     8    4    5 ar   
     9    4   38 1    
    10    5    6 ar   
    11    5   39 1    
    12    6    7 ar   
    13    6    9 1    
    14    7    8 ar   
    15    7   40 1    
    16    8   41 1    
    17    9   10 1    
    18    9   28 1    
    19    9   11 1    
    20   11   12 1    
    21   11   18 1    
    22   11   13 1    
    23   13   14 1    
    24   13   15 1    
    25   13   27 1    
    26   15   16 2    
    27   15   17 am   BACKBONE|DICT|INTERRES
    28   17   18 am   BACKBONE|DICT|INTERRES
    29   17   20 1    
    30   18   19 2    
    31   20   25 ar   
    32   20   21 ar   
    33   21   22 ar   
    34   21   42 1    
    35   22   23 ar   
    36   22   43 1    
    37   23   24 ar   
    38   23   26 1    
    39   24   25 ar   
    40   24   44 1    
    41   25   45 1    
    42   27   28 1    
    43   28   29 1    
    44   29   34 ar   
    45   29   30 ar   
    46   30   31 ar   
    47   30   46 1    
    48   31   32 ar   
    49   31   47 1    
    50   32   33 ar   
    51   32   48 1    
    52   33   34 ar   
    53   33   49 1    
    54   34   50 1    
@<TRIPOS>SUBSTRUCTURE
     1 <0>         1 GROUP             0       ****    0 ROOT    
@<TRIPOS>MOLECULE
ZINC18177390
50   54    1
SMALL
USER_CHARGES


@<TRIPOS>ATOM
      1 C1          8.3561   11.3280   -4.7250 C.3       1 <0>        -0.0730 
      2 S1          6.8575   11.8523   -3.8449 S.3       1 <0>        -0.3605 
      3 C2          7.2093   11.7803   -2.1120 C.ar      1 <0>         0.1202 
      4 C3          8.2066   10.9392   -1.6180 C.ar      1 <0>        -0.1297 
      5 C4          8.4794   10.9185   -0.2543 C.ar      1 <0>        -0.0847 
      6 C5          7.7692   11.7450    0.6218 C.ar      1 <0>        -0.0949 
      7 C6          6.7593   12.5771    0.1198 C.ar      1 <0>        -0.0847 
      8 C7          6.4748   12.5855   -1.2435 C.ar      1 <0>        -0.1297 
      9 C8          8.2023   11.7638    2.0936 C.3       1 <0>         0.1204 
     10 H1          8.4393   10.7318    2.3608 H         1 <0>         0.0791 
     11 C9          9.3985   12.6705    2.3117 C.3       1 <0>        -0.1207 
     12 H2          9.3744   13.4537    1.5502 H         1 <0>         0.1272 
     13 C10         9.2421   13.0552    3.7030 C.3       1 <0>         0.0521 
     14 H3          9.2573   12.2538    4.4444 H         1 <0>         0.0902 
     15 C11        10.5044   13.8537    3.8841 C.2       1 <0>         0.3965 
     16 O1         10.5947   14.8429    4.6020 O.2       1 <0>        -0.4517 
     17 N1         11.4715   13.1485    3.1906 N.am      1 <0>        -0.0131 
     18 C12        10.8389   12.2264    2.3709 C.2       1 <0>         0.3858 
     19 O2         11.2783   11.2717    1.7369 O.2       1 <0>        -0.4662 
     20 C13        12.9018   13.3798    3.2645 C.ar      1 <0>        -0.0270 
     21 C14        13.8097   12.6518    2.4646 C.ar      1 <0>        -0.0778 
     22 C15        15.1750   12.9205    2.4644 C.ar      1 <0>        -0.1623 
     23 C16        15.6781   13.9310    3.2683 C.ar      1 <0>         0.2291 
     24 C17        14.8255   14.6533    4.0922 C.ar      1 <0>        -0.1623 
     25 C18        13.4614   14.3732    4.0997 C.ar      1 <0>        -0.0778 
     26 F1         17.0024   14.2003    3.2658 F         1 <0>        -0.2122 
     27 O3          7.9125   13.5098    3.6019 O.3       1 <0>        -0.1886 
     28 N2          7.1982   12.3657    3.0018 N.pl3     1 <0>        -0.3529 
     29 C19         6.4388   11.6338    3.9391 C.ar      1 <0>         0.1516 
     30 C20         5.6862   10.5524    3.4632 C.ar      1 <0>        -0.1183 
     31 C21         4.9347    9.7648    4.3324 C.ar      1 <0>        -0.1226 
     32 C22         4.9191   10.0625    5.6913 C.ar      1 <0>        -0.1241 
     33 C23         5.6436   11.1418    6.1850 C.ar      1 <0>        -0.1226 
     34 C24         6.3951   11.9265    5.3145 C.ar      1 <0>        -0.1183 
     35 H4          8.2644   11.5523   -5.7873 H         1 <0>         0.0937 
     36 H5          9.2302   11.8537   -4.3370 H         1 <0>         0.0937 
     37 H6          8.5132   10.2569   -4.6159 H         1 <0>         0.0937 
     38 H7          8.7806   10.3075   -2.2776 H         1 <0>         0.1394 
     39 H8          9.2670   10.2767    0.1172 H         1 <0>         0.1402 
     40 H9          6.2055   13.2321    0.7760 H         1 <0>         0.1402 
     41 H10         5.7042   13.2365   -1.6297 H         1 <0>         0.1394 
     42 H11        13.5001   11.8630    1.7987 H         1 <0>         0.1470 
     43 H12        15.8391   12.3529    1.8310 H         1 <0>         0.1535 
     44 H13        15.2239   15.4276    4.7308 H         1 <0>         0.1535 
     45 H14        12.8746   14.9764    4.7699 H         1 <0>         0.1470 
     46 H15         5.6980   10.3066    2.4114 H         1 <0>         0.1387 
     47 H16         4.3703    8.9240    3.9574 H         1 <0>         0.1359 
     48 H17         4.3402    9.4531    6.3712 H         1 <0>         0.1333 
     49 H18         5.6257   11.3695    7.2425 H         1 <0>         0.1359 
     50 H19         6.9479   12.7529    5.7350 H         1 <0>         0.1387 
@<TRIPOS>BOND
     1    1    2 1    
     2    1   35 1    
     3    1   36 1    
     4    1   37 1    
     5    2    3 1    
     6    3    8 ar   
     7    3    4 ar   
     8    4    5 ar   
     9    4   38 1    
    10    5    6 ar   
    11    5   39 1    
    12    6    7 ar   
    13    6    9 1    
    14    7    8 ar   
    15    7   40 1    
    16    8   41 1    
    17    9   10 1    
    18    9   28 1    
    19    9   11 1    
    20   11   12 1    
    21   11   18 1    
    22   11   13 1    
    23   13   14 1    
    24   13   15 1    
    25   13   27 1    
    26   15   16 2    
    27   15   17 am   BACKBONE|DICT|INTERRES
    28   17   18 am   BACKBONE|DICT|INTERRES
    29   17   20 1    
    30   18   19 2    
    31   20   25 ar   
    32   20   21 ar   
    33   21   22 ar   
    34   21   42 1    
    35   22   23 ar   
    36   22   43 1    
    37   23   24 ar   
    38   23   26 1    
    39   24   25 ar   
    40   24   44 1    
    41   25   45 1    
    42   27   28 1    
    43   28   29 1    
    44   29   34 ar   
    45   29   30 ar   
    46   30   31 ar   
    47   30   46 1    
    48   31   32 ar   
    49   31   47 1    
    50   32   33 ar   
    51   32   48 1    
    52   33   34 ar   
    53   33   49 1    
    54   34   50 1    
@<TRIPOS>SUBSTRUCTURE
     1 <0>         1 GROUP             0       ****    0 ROOT    
@<TRIPOS>MOLECULE
ZINC64790056
57   61    1
SMALL
USER_CHARGES


@<TRIPOS>ATOM
      1 C1          5.2322   11.5889    6.3924 C.3       1 <0>        -0.1276 
      2 C2          5.8586   12.5863    5.4333 C.ar      1 <0>        -0.0760 
      3 C3          5.1701   13.7513    5.0880 C.ar      1 <0>        -0.1215 
      4 C4          5.7449   14.6771    4.2169 C.ar      1 <0>        -0.1224 
      5 C5          7.0174   14.4487    3.6938 C.ar      1 <0>        -0.1157 
      6 C6          7.7243   13.2891    4.0425 C.ar      1 <0>        -0.0711 
      7 C7          7.1320   12.3558    4.9076 C.ar      1 <0>        -0.1135 
      8 N1          9.0287   13.0663    3.5300 N.pl3     1 <0>        -0.1788 
      9 C8          9.2391   12.1277    2.5167 C.ar      1 <0>         0.4026 
     10 N2         10.4212   11.8926    2.0622 N.2       1 <0>        -0.7371 
     11 C9         11.5364   12.5623    2.5694 C.ar      1 <0>         0.7631 
     12 C10        12.7941   12.2536    2.0642 C.ar      1 <0>        -0.4075 
     13 C11        13.9392   12.8334    2.6147 C.ar      1 <0>        -0.0370 
     14 C12        13.8156   13.7778    3.6346 C.ar      1 <0>        -0.2737 
     15 C13        12.5535   14.1275    4.1141 C.ar      1 <0>         0.0278 
     16 C14        11.4175   13.4988    3.5912 C.ar      1 <0>        -0.5081 
     17 C15        10.0392   13.8098    4.1219 C.ar      1 <0>         0.7692 
     18 O1          9.8693   14.6479    5.0094 O.2       1 <0>        -0.5761 
     19 C16         8.0317   11.3300    1.9466 C.3       1 <0>        -0.0977 
     20 C17         8.3296   10.4080    0.7236 C.3       1 <0>        -0.0597 
     21 H1          9.2890    9.9104    0.8510 H         1 <0>         0.1231 
     22 C18         7.3073    9.3522    0.4469 C.ar      1 <0>        -0.1530 
     23 C19         6.7743    8.3527    1.2641 C.ar      1 <0>        -0.0760 
     24 C20         5.8591    7.4431    0.7321 C.ar      1 <0>        -0.1588 
     25 C21         5.4859    7.5301   -0.6113 C.ar      1 <0>        -0.0946 
     26 C22         6.0279    8.5267   -1.4268 C.ar      1 <0>        -0.1525 
     27 C23         6.9455    9.4338   -0.8852 C.ar      1 <0>         0.0330 
     28 N3          7.5990   10.5156   -1.4873 N.am      1 <0>        -0.1593 
     29 C24         8.3805   11.1908   -0.5985 C.2       1 <0>         0.4278 
     30 O2          9.0251   12.2258   -0.7792 O.2       1 <0>        -0.4856 
     31 C25         7.5043   10.8844   -2.9142 C.3       1 <0>         0.0282 
     32 C26         6.8910   12.2746   -3.1643 C.3       1 <0>        -0.1882 
     33 C27         8.8190   10.6615   -3.6881 C.3       1 <0>        -0.1882 
     34 H2          4.8314   12.1071    7.2648 H         1 <0>         0.0724 
     35 H3          4.4069   11.0595    5.9133 H         1 <0>         0.0724 
     36 H4          5.9570   10.8597    6.7601 H         1 <0>         0.0724 
     37 H5          4.1871   13.9385    5.4952 H         1 <0>         0.1340 
     38 H6          5.2041   15.5725    3.9507 H         1 <0>         0.1373 
     39 H7          7.4532   15.1714    3.0203 H         1 <0>         0.1416 
     40 H8          7.6532   11.4496    5.1756 H         1 <0>         0.1414 
     41 H9         12.8821   11.5134    1.2808 H         1 <0>         0.1987 
     42 H10        14.9138   12.5607    2.2384 H         1 <0>         0.1488 
     43 H11        14.6978   14.2458    4.0478 H         1 <0>         0.1633 
     44 H12        12.4735   14.8750    4.8877 H         1 <0>         0.1361 
     45 H13         7.6335   10.6880    2.7347 H         1 <0>         0.1020 
     46 H14         7.2174   12.0136    1.7001 H         1 <0>         0.1020 
     47 H15         7.0682    8.2632    2.2994 H         1 <0>         0.1382 
     48 H16         5.4443    6.6683    1.3600 H         1 <0>         0.1353 
     49 H17         4.7778    6.8242   -1.0205 H         1 <0>         0.1358 
     50 H18         5.7225    8.5748   -2.4609 H         1 <0>         0.1385 
     51 H19         6.7982   10.1883   -3.3631 H         1 <0>         0.1102 
     52 H20         7.4987   13.0623   -2.7228 H         1 <0>         0.0707 
     53 H21         6.8455   12.4938   -4.2317 H         1 <0>         0.0707 
     54 H22         5.8735   12.3425   -2.7784 H         1 <0>         0.0707 
     55 H23         9.6343   11.2537   -3.2740 H         1 <0>         0.0707 
     56 H24         9.1097    9.6105   -3.6946 H         1 <0>         0.0707 
     57 H25         8.7189   10.9698   -4.7291 H         1 <0>         0.0707 
@<TRIPOS>BOND
     1    1    2 1    
     2    1   34 1    
     3    1   35 1    
     4    1   36 1    
     5    2    7 ar   
     6    2    3 ar   
     7    3    4 ar   
     8    3   37 1    
     9    4    5 ar   
    10    4   38 1    
    11    5    6 ar   
    12    5   39 1    
    13    6    7 ar   
    14    6    8 1    
    15    7   40 1    
    16    8   17 ar   
    17    8    9 ar   
    18    9   10 ar   
    19    9   19 1    
    20   10   11 ar   
    21   11   16 ar   
    22   11   12 ar   
    23   12   13 ar   
    24   12   41 1    
    25   13   14 ar   
    26   13   42 1    
    27   14   15 ar   
    28   14   43 1    
    29   15   16 ar   
    30   15   44 1    
    31   16   17 ar   
    32   17   18 2    
    33   19   20 1    
    34   19   45 1    
    35   19   46 1    
    36   20   21 1    
    37   20   29 1    
    38   20   22 1    
    39   22   27 ar   
    40   22   23 ar   
    41   23   24 ar   
    42   23   47 1    
    43   24   25 ar   
    44   24   48 1    
    45   25   26 ar   
    46   25   49 1    
    47   26   27 ar   
    48   26   50 1    
    49   27   28 1    
    50   28   29 am   BACKBONE|DICT|INTERRES
    51   28   31 1    
    52   29   30 2    
    53   31   32 1    
    54   31   33 1    
    55   31   51 1    
    56   32   52 1    
    57   32   53 1    
    58   32   54 1    
    59   33   55 1    
    60   33   56 1    
    61   33   57 1    
@<TRIPOS>SUBSTRUCTURE
     1 <0>         1 GROUP             0       ****    0 ROOT    
@<TRIPOS>MOLECULE
ZINC64963700
45   48    1
SMALL
USER_CHARGES


@<TRIPOS>ATOM
      1 C1          8.5156   11.2880   -1.6837 C.3       1 <0>        -0.1734 
      2 C2          9.1245   12.0026   -0.4705 C.3       1 <0>        -0.1560 
      3 C3          9.6325   11.0336    0.6164 C.3       1 <0>        -0.0566 
      4 N1         10.0271   11.7044    1.8580 N.pl3     1 <0>        -0.2482 
      5 C4         11.3686   12.0057    2.0189 C.ar      1 <0>         0.0678 
      6 C5         11.8562   12.9408    2.8671 C.ar      1 <0>        -0.4203 
      7 C6         10.9291   13.7149    3.7314 C.ar      1 <0>         0.6615 
      8 O1         11.2492   14.6530    4.4644 O.2       1 <0>        -0.4549 
      9 C7          9.5043   13.2276    3.6868 C.ar      1 <0>        -0.2241 
     10 C8          9.0737   12.2537    2.7555 C.ar      1 <0>         0.2271 
     11 C9          7.7290   11.8534    2.7483 C.ar      1 <0>        -0.1817 
     12 C10         6.8245   12.3792    3.6670 C.ar      1 <0>        -0.0716 
     13 C11         7.2446   13.3235    4.6014 C.ar      1 <0>        -0.1211 
     14 C12         8.5711   13.7536    4.5955 C.ar      1 <0>        -0.0434 
     15 C13         6.2672   13.8864    5.6182 C.3       1 <0>        -0.1238 
     16 C14        13.3078   13.1634    2.9563 C.2       1 <0>         0.3403 
     17 N2         13.9443   14.0118    3.7189 N.2       1 <0>        -0.2347 
     18 C15        15.2131   13.8531    3.3874 C.2       1 <0>         0.1227 
     19 N3         15.4236   12.9445    2.4576 N.2       1 <0>        -0.1175 
     20 O2         14.1507   12.4681    2.1522 O.3       1 <0>        -0.2099 
     21 C16        16.3104   14.6537    4.0645 C.ar      1 <0>         0.0027 
     22 C17        15.9114   15.6321    4.9947 C.ar      1 <0>        -0.0974 
     23 C18        16.8395   16.3849    5.7090 C.ar      1 <0>        -0.1226 
     24 C19        18.1994   16.1959    5.4984 C.ar      1 <0>        -0.1154 
     25 C20        18.6255   15.2232    4.6016 C.ar      1 <0>        -0.1060 
     26 C21        17.7005   14.4401    3.9086 C.ar      1 <0>         0.0361 
     27 Br1        18.4318   13.0278    2.8645 Br        1 <0>        -0.0972 
     28 H1          9.2315   10.6118   -2.1511 H         1 <0>         0.0658 
     29 H2          7.6386   10.7043   -1.4020 H         1 <0>         0.0658 
     30 H3          8.2079   12.0093   -2.4419 H         1 <0>         0.0658 
     31 H4          9.9399   12.6535   -0.7934 H         1 <0>         0.0798 
     32 H5          8.3756   12.6734   -0.0477 H         1 <0>         0.0798 
     33 H6          8.8708   10.2841    0.8309 H         1 <0>         0.0882 
     34 H7         10.4277   10.4043    0.2133 H         1 <0>         0.0882 
     35 H8         12.0356   11.4079    1.4085 H         1 <0>         0.1725 
     36 H9          7.3699   11.1085    2.0558 H         1 <0>         0.1359 
     37 H10         5.7998   12.0362    3.6591 H         1 <0>         0.1376 
     38 H11         8.8762   14.4871    5.3294 H         1 <0>         0.1582 
     39 H12         6.4038   13.4047    6.5881 H         1 <0>         0.0719 
     40 H13         6.4238   14.9576    5.7487 H         1 <0>         0.0719 
     41 H14         5.2324   13.7532    5.3000 H         1 <0>         0.0719 
     42 H15        14.8656   15.8214    5.1907 H         1 <0>         0.1403 
     43 H16        16.4989   17.1151    6.4267 H         1 <0>         0.1372 
     44 H17        18.9222   16.7848    6.0432 H         1 <0>         0.1381 
     45 H18        19.6840   15.0503    4.4651 H         1 <0>         0.1483 
@<TRIPOS>BOND
     1    1    2 1    
     2    1   28 1    
     3    1   29 1    
     4    1   30 1    
     5    2    3 1    
     6    2   31 1    
     7    2   32 1    
     8    3    4 1    
     9    3   33 1    
    10    3   34 1    
    11    4   10 ar   
    12    4    5 ar   
    13    5    6 ar   
    14    5   35 1    
    15    6    7 ar   
    16    6   16 1    
    17    7    8 2    
    18    7    9 ar   
    19    9   14 ar   
    20    9   10 ar   
    21   10   11 ar   
    22   11   12 ar   
    23   11   36 1    
    24   12   13 ar   
    25   12   37 1    
    26   13   14 ar   
    27   13   15 1    
    28   14   38 1    
    29   15   39 1    
    30   15   40 1    
    31   15   41 1    
    32   16   20 1    
    33   16   17 2    
    34   17   18 1    
    35   18   19 2    
    36   18   21 1    
    37   19   20 1    
    38   21   26 ar   
    39   21   22 ar   
    40   22   23 ar   
    41   22   42 1    
    42   23   24 ar   
    43   23   43 1    
    44   24   25 ar   
    45   24   44 1    
    46   25   26 ar   
    47   25   45 1    
    48   26   27 1    
@<TRIPOS>SUBSTRUCTURE
     1 <0>         1 GROUP             0       ****    0 ROOT    
@<TRIPOS>MOLECULE
ZINC04132155
53   55    1
SMALL
USER_CHARGES


@<TRIPOS>ATOM
      1 C1          7.8735   12.9734    6.1005 C.3       1 <0>        -0.1265 
      2 C2          7.3371   14.1648    5.3228 C.ar      1 <0>        -0.0800 
      3 C3          6.4423   15.0334    5.9543 C.ar      1 <0>        -0.1028 
      4 C4          5.9101   16.1179    5.2604 C.ar      1 <0>         0.0413 
      5 C5          6.2350   16.3163    3.9194 C.ar      1 <0>        -0.1028 
      6 C6          7.1147   15.4483    3.2691 C.ar      1 <0>        -0.0800 
      7 C7          7.6942   14.3823    3.9793 C.ar      1 <0>         0.1171 
      8 O1          8.5986   13.5518    3.3561 O.3       1 <0>        -0.3399 
      9 C8          9.9649   13.9027    3.5775 C.3       1 <0>         0.1124 
     10 C9         10.8973   12.9951    2.7624 C.2       1 <0>         0.4003 
     11 O2         10.4514   12.0835    2.0638 O.2       1 <0>        -0.4602 
     12 N1         12.2034   13.2880    2.8865 N.am      1 <0>        -0.0502 
     13 N2         13.1950   12.5617    2.3291 N.2       1 <0>        -0.3350 
     14 C10        14.4030   12.9198    2.5675 C.2       1 <0>         0.0880 
     15 C11        14.9499   13.8973    3.5389 C.ar      1 <0>        -0.0515 
     16 C12        14.2646   14.2365    4.7162 C.ar      1 <0>        -0.1661 
     17 C13        14.8542   15.0546    5.6643 C.ar      1 <0>        -0.0935 
     18 C14        16.1066   15.5852    5.4566 C.ar      1 <0>        -0.1949 
     19 C15        16.8445   15.2593    4.3112 C.ar      1 <0>         0.1617 
     20 C16        16.2451   14.4272    3.3524 C.ar      1 <0>        -0.1361 
     21 O3         18.1448   15.7072    4.1186 O.3       1 <0>        -0.3629 
     22 C17        18.7415   16.4027    5.2222 C.3       1 <0>         0.2093 
     23 C18        20.1837   16.8040    4.9990 C.ar      1 <0>        -0.1052 
     24 C19        21.1802   16.2543    5.8115 C.ar      1 <0>        -0.1026 
     25 C20        22.4683   16.7690    5.7663 C.ar      1 <0>        -0.1326 
     26 C21        22.7634   17.8120    4.8947 C.ar      1 <0>        -0.1158 
     27 C22        21.7846   18.3287    4.0474 C.ar      1 <0>        -0.1326 
     28 C23        20.4900   17.8217    4.0974 C.ar      1 <0>        -0.1026 
     29 C24         7.4474   15.7016    1.8071 C.3       1 <0>        -0.1265 
     30 Br1         4.7426   17.3372    6.1417 Br        1 <0>        -0.1569 
     31 H1          8.8170   13.2224    6.5912 H         1 <0>         0.0770 
     32 H2          7.1610   12.6463    6.8619 H         1 <0>         0.0770 
     33 H3          8.0292   12.1165    5.4436 H         1 <0>         0.0770 
     34 H4          6.1653   14.8721    6.9880 H         1 <0>         0.1479 
     35 H5          5.7983   17.1499    3.3881 H         1 <0>         0.1479 
     36 H6         10.2102   13.7932    4.6355 H         1 <0>         0.0532 
     37 H7         10.1377   14.9398    3.2826 H         1 <0>         0.0532 
     38 H8         12.5143   14.0678    3.4465 H         1 <0>         0.2277 
     39 H9         15.1843   12.4239    2.0007 H         1 <0>         0.1250 
     40 H10        13.3199   13.7904    4.9924 H         1 <0>         0.1352 
     41 H11        14.4316   15.2326    6.6329 H         1 <0>         0.1381 
     42 H12        16.4951   16.2064    6.2491 H         1 <0>         0.1363 
     43 H13        16.8187   14.1647    2.4751 H         1 <0>         0.1518 
     44 H14        18.1933   17.3242    5.4291 H         1 <0>         0.0413 
     45 H15        18.6874   15.7877    6.1249 H         1 <0>         0.0413 
     46 H16        20.9544   15.4623    6.5120 H         1 <0>         0.1333 
     47 H17        23.2350   16.3638    6.4109 H         1 <0>         0.1338 
     48 H18        23.7631   18.2187    4.8692 H         1 <0>         0.1325 
     49 H19        22.0269   19.1308    3.3661 H         1 <0>         0.1338 
     50 H20        19.7172   18.2461    3.4724 H         1 <0>         0.1333 
     51 H21         6.7036   15.2325    1.1626 H         1 <0>         0.0770 
     52 H22         7.4702   16.7694    1.5879 H         1 <0>         0.0770 
     53 H23         8.4290   15.3087    1.5422 H         1 <0>         0.0770 
@<TRIPOS>BOND
     1    1    2 1    
     2    1   31 1    
     3    1   32 1    
     4    1   33 1    
     5    2    7 ar   
     6    2    3 ar   
     7    3    4 ar   
     8    3   34 1    
     9    4    5 ar   
    10    4   30 1    
    11    5    6 ar   
    12    5   35 1    
    13    6    7 ar   
    14    6   29 1    
    15    7    8 1    
    16    8    9 1    
    17    9   10 1    
    18    9   36 1    
    19    9   37 1    
    20   10   11 2    
    21   10   12 am   BACKBONE|DICT|INTERRES
    22   12   13 1    
    23   12   38 1    
    24   13   14 2    
    25   14   15 1    
    26   14   39 1    
    27   15   20 ar   
    28   15   16 ar   
    29   16   17 ar   
    30   16   40 1    
    31   17   18 ar   
    32   17   41 1    
    33   18   19 ar   
    34   18   42 1    
    35   19   20 ar   
    36   19   21 1    
    37   20   43 1    
    38   21   22 1    
    39   22   23 1    
    40   22   44 1    
    41   22   45 1    
    42   23   28 ar   
    43   23   24 ar   
    44   24   25 ar   
    45   24   46 1    
    46   25   26 ar   
    47   25   47 1    
    48   26   27 ar   
    49   26   48 1    
    50   27   28 ar   
    51   27   49 1    
    52   28   50 1    
    53   29   51 1    
    54   29   52 1    
    55   29   53 1    
@<TRIPOS>SUBSTRUCTURE
     1 <0>         1 GROUP             0       ****    0 ROOT    
@<TRIPOS>MOLECULE
ZINC04210478
49   52    1
SMALL
USER_CHARGES


@<TRIPOS>ATOM
      1 C1         23.7647   18.2666    6.2383 C.ar      1 <0>        -0.1106 
      2 C2         23.1733   19.0539    5.2644 C.ar      1 <0>        -0.1345 
      3 C3         22.0334   18.6123    4.6122 C.ar      1 <0>        -0.1007 
      4 C4         21.4927   17.3701    4.9432 C.ar      1 <0>        -0.1188 
      5 C5         22.0966   16.5721    5.9136 C.ar      1 <0>        -0.1007 
      6 C6         23.2312   17.0295    6.5491 C.ar      1 <0>        -0.1345 
      7 C7         20.2894   16.9346    4.2582 C.2       1 <0>         0.0275 
      8 C8         19.7533   15.7002    4.3174 C.2       1 <0>        -0.2122 
      9 C9         18.5224   15.4331    3.6328 C.2       1 <0>         0.4526 
     10 O1         18.0315   16.2536    2.8646 O.2       1 <0>        -0.4421 
     11 O2         17.9871   14.2380    3.9730 O.3       1 <0>        -0.2279 
     12 C10        16.7100   13.9104    3.5740 C.ar      1 <0>         0.0789 
     13 C11        16.5271   12.7536    2.8218 C.ar      1 <0>        -0.1338 
     14 C12        15.2416   12.3407    2.4830 C.ar      1 <0>        -0.0915 
     15 C13        14.1230   13.0524    2.9232 C.ar      1 <0>        -0.0325 
     16 C14        14.3159   14.2251    3.6685 C.ar      1 <0>        -0.0915 
     17 C15        15.5988   14.6539    3.9911 C.ar      1 <0>        -0.1338 
     18 C16        12.7841   12.5426    2.6057 C.2       1 <0>         0.0962 
     19 N1         11.7225   13.1936    2.8624 N.2       1 <0>        -0.3593 
     20 N2         10.6078   12.5339    2.5103 N.am      1 <0>        -0.0203 
     21 C17         9.3727   13.0297    2.7215 C.2       1 <0>         0.3964 
     22 O3          9.1263   14.1350    3.2192 O.2       1 <0>        -0.4565 
     23 C18         8.3215   12.1098    2.3625 C.2       1 <0>        -0.0547 
     24 C19         7.1436   11.8584    3.0562 C.2       1 <0>        -0.1944 
     25 C20         6.3575   10.8255    2.4595 C.ar      1 <0>         0.5756 
     26 C21         5.1333   10.2667    2.8735 C.ar      1 <0>        -0.4851 
     27 C22         4.5506    9.2428    2.1294 C.ar      1 <0>         0.0251 
     28 C23         5.1567    8.7646    0.9733 C.ar      1 <0>        -0.2833 
     29 C24         6.3645    9.2897    0.5228 C.ar      1 <0>        -0.0892 
     30 C25         6.9583   10.3177    1.2685 C.ar      1 <0>        -0.1539 
     31 S1          8.4756   11.1227    0.9140 S.3       1 <0>         0.0134 
     32 Cl1         6.6471   12.6299    4.5200 Cl        1 <0>        -0.0689 
     33 H1         24.6557   18.6073    6.7447 H         1 <0>         0.1336 
     34 H2         23.6005   20.0145    5.0167 H         1 <0>         0.1356 
     35 H3         21.5861   19.2376    3.8544 H         1 <0>         0.1345 
     36 H4         21.7188   15.5983    6.1871 H         1 <0>         0.1345 
     37 H5         23.7118   16.3878    7.2643 H         1 <0>         0.1356 
     38 H6         19.8012   17.7072    3.6767 H         1 <0>         0.1485 
     39 H7         20.1956   14.8862    4.8713 H         1 <0>         0.1529 
     40 H8         17.3871   12.1818    2.5027 H         1 <0>         0.1455 
     41 H9         15.1134   11.4541    1.8829 H         1 <0>         0.1449 
     42 H10        13.4725   14.8018    4.0209 H         1 <0>         0.1449 
     43 H11        15.7312   15.5410    4.5928 H         1 <0>         0.1455 
     44 H12        12.7715   11.5526    2.1409 H         1 <0>         0.0623 
     45 H13        10.7431   11.6243    2.0911 H         1 <0>         0.2240 
     46 H14         4.6519   10.6155    3.7751 H         1 <0>         0.2231 
     47 H15         3.6164    8.8087    2.4578 H         1 <0>         0.1319 
     48 H16         4.6825    7.9659    0.4203 H         1 <0>         0.1736 
     49 H17         6.8355    8.9072   -0.3719 H         1 <0>         0.1939 
@<TRIPOS>BOND
     1    1    6 ar   
     2    1    2 ar   
     3    1   33 1    
     4    2    3 ar   
     5    2   34 1    
     6    3    4 ar   
     7    3   35 1    
     8    4    5 ar   
     9    4    7 1    
    10    5    6 ar   
    11    5   36 1    
    12    6   37 1    
    13    7    8 2    
    14    7   38 1    
    15    8    9 1    
    16    8   39 1    
    17    9   10 2    
    18    9   11 1    
    19   11   12 1    
    20   12   17 ar   
    21   12   13 ar   
    22   13   14 ar   
    23   13   40 1    
    24   14   15 ar   
    25   14   41 1    
    26   15   16 ar   
    27   15   18 1    
    28   16   17 ar   
    29   16   42 1    
    30   17   43 1    
    31   18   19 2    
    32   18   44 1    
    33   19   20 1    
    34   20   21 am   BACKBONE|DICT|INTERRES
    35   20   45 1    
    36   21   22 2    
    37   21   23 1    
    38   23   31 1    
    39   23   24 2    
    40   24   25 1    
    41   24   32 1    
    42   25   30 ar   
    43   25   26 ar   
    44   26   27 ar   
    45   26   46 1    
    46   27   28 ar   
    47   27   47 1    
    48   28   29 ar   
    49   28   48 1    
    50   29   30 ar   
    51   29   49 1    
    52   30   31 1    
@<TRIPOS>SUBSTRUCTURE
     1 <0>         1 GROUP             0       ****    0 ROOT    
@<TRIPOS>MOLECULE
ZINC01773510
64   66    1
SMALL
USER_CHARGES


@<TRIPOS>ATOM
      1 C1          2.4809    9.0969    4.2240 C.3       1 <0>        -0.1713 
      2 C2          3.2700   10.3934    4.4816 C.3       1 <0>        -0.0836 
      3 H1          2.7136   11.1999    4.0014 H         1 <0>         0.0757 
      4 C3          3.4132   10.6623    5.9901 C.3       1 <0>        -0.1283 
      5 C4          3.9972   12.0605    6.2720 C.3       1 <0>        -0.1381 
      6 C5          5.2490   12.3044    5.4137 C.2       1 <0>         0.0439 
      7 C6          5.5162   11.4795    4.3064 C.2       1 <0>        -0.0880 
      8 S1          7.0118   11.8599    3.5566 S.3       1 <0>         0.0908 
      9 C7          7.3484   13.0675    4.7647 C.2       1 <0>         0.0362 
     10 C8          6.2701   13.2795    5.6522 C.2       1 <0>        -0.0389 
     11 C9          6.2625   14.3452    6.6828 C.2       1 <0>         0.4178 
     12 O1          7.2469   15.0477    6.9472 O.2       1 <0>        -0.4192 
     13 O2          5.0555   14.4952    7.2669 O.3       1 <0>        -0.3144 
     14 C10         4.8816   15.3836    8.3613 C.3       1 <0>         0.0966 
     15 N1          8.5847   13.7093    4.8418 N.am      1 <0>        -0.3555 
     16 C11         9.6529   13.6116    4.0249 C.2       1 <0>         0.4572 
     17 O3          9.6705   13.0379    2.9367 O.2       1 <0>        -0.5032 
     18 C12        10.9155   14.3037    4.5473 C.3       1 <0>        -0.1434 
     19 C13        12.2165   13.8907    3.8256 C.3       1 <0>        -0.1711 
     20 C14        13.4359   14.5804    4.4390 C.3       1 <0>         0.1980 
     21 O4         14.5973   14.2378    3.6932 O.3       1 <0>        -0.3702 
     22 C15        15.8042   14.7893    4.0712 C.ar      1 <0>         0.1558 
     23 C16        16.9186   14.4471    3.3159 C.ar      1 <0>        -0.1802 
     24 C17        18.1688   14.9817    3.6149 C.ar      1 <0>        -0.0930 
     25 C18        18.3334   15.8886    4.6722 C.ar      1 <0>        -0.0984 
     26 C19        17.2188   16.1757    5.4737 C.ar      1 <0>        -0.0930 
     27 C20        15.9718   15.6345    5.1805 C.ar      1 <0>        -0.1802 
     28 C21        19.7139   16.5273    4.9725 C.3       1 <0>         0.0154 
     29 C22        20.5861   16.6575    3.6953 C.3       1 <0>        -0.1654 
     30 C23        19.5822   17.9749    5.5291 C.3       1 <0>        -0.1654 
     31 C24        20.4569   15.6324    5.9910 C.3       1 <0>        -0.1654 
     32 C25         4.6688   10.3008    3.8365 C.3       1 <0>        -0.1253 
     33 H2          1.4758    9.1550    4.6439 H         1 <0>         0.0618 
     34 H3          2.3780    8.8997    3.1566 H         1 <0>         0.0618 
     35 H4          2.9733    8.2338    4.6770 H         1 <0>         0.0618 
     36 H5          3.9916    9.8699    6.4688 H         1 <0>         0.0717 
     37 H6          2.4318   10.5979    6.4612 H         1 <0>         0.0717 
     38 H7          4.2276   12.1246    7.3359 H         1 <0>         0.0845 
     39 H8          3.2476   12.8256    6.0703 H         1 <0>         0.0845 
     40 H9          4.9897   16.4215    8.0523 H         1 <0>         0.0470 
     41 H10         3.8822   15.2534    8.7775 H         1 <0>         0.0470 
     42 H11         5.6002   15.1724    9.1541 H         1 <0>         0.0470 
     43 H12         8.6688   14.3224    5.6406 H         1 <0>         0.2933 
     44 H13        11.0118   14.0800    5.6103 H         1 <0>         0.0817 
     45 H14        10.7765   15.3793    4.4620 H         1 <0>         0.0817 
     46 H15        12.1567   14.1458    2.7663 H         1 <0>         0.1002 
     47 H16        12.3575   12.8091    3.8763 H         1 <0>         0.1002 
     48 H17        13.5489   14.2635    5.4780 H         1 <0>         0.0318 
     49 H18        13.2902   15.6628    4.4255 H         1 <0>         0.0318 
     50 H19        16.8106   13.7674    2.4838 H         1 <0>         0.1368 
     51 H20        18.9964   14.6827    2.9902 H         1 <0>         0.1321 
     52 H21        17.2940   16.8217    6.3330 H         1 <0>         0.1321 
     53 H22        15.1457   15.8974    5.8216 H         1 <0>         0.1368 
     54 H23        20.0836   17.2382    2.9208 H         1 <0>         0.0608 
     55 H24        21.5370   17.1502    3.9026 H         1 <0>         0.0608 
     56 H25        20.8316   15.6887    3.2649 H         1 <0>         0.0608 
     57 H26        19.0164   18.0448    6.4573 H         1 <0>         0.0608 
     58 H27        20.5618   18.4085    5.7364 H         1 <0>         0.0608 
     59 H28        19.0922   18.6347    4.8125 H         1 <0>         0.0608 
     60 H29        20.6853   14.6526    5.5680 H         1 <0>         0.0608 
     61 H30        21.4044   16.0723    6.3067 H         1 <0>         0.0608 
     62 H31        19.8618   15.4528    6.8872 H         1 <0>         0.0608 
     63 H32         4.5864   10.2830    2.7492 H         1 <0>         0.0798 
     64 H33         5.1582    9.3741    4.1399 H         1 <0>         0.0798 
@<TRIPOS>BOND
     1    1    2 1    
     2    1   33 1    
     3    1   34 1    
     4    1   35 1    
     5    2    3 1    
     6    2   32 1    
     7    2    4 1    
     8    4    5 1    
     9    4   36 1    
    10    4   37 1    
    11    5    6 1    
    12    5   38 1    
    13    5   39 1    
    14    6   10 1    
    15    6    7 2    
    16    7    8 1    
    17    7   32 1    
    18    8    9 1    
    19    9   10 2    
    20    9   15 am   BACKBONE|DICT|INTERRES
    21   10   11 1    
    22   11   12 2    
    23   11   13 1    
    24   13   14 1    
    25   14   40 1    
    26   14   41 1    
    27   14   42 1    
    28   15   16 am   BACKBONE|DICT|INTERRES
    29   15   43 1    
    30   16   17 2    
    31   16   18 1    
    32   18   19 1    
    33   18   44 1    
    34   18   45 1    
    35   19   20 1    
    36   19   46 1    
    37   19   47 1    
    38   20   21 1    
    39   20   48 1    
    40   20   49 1    
    41   21   22 1    
    42   22   27 ar   
    43   22   23 ar   
    44   23   24 ar   
    45   23   50 1    
    46   24   25 ar   
    47   24   51 1    
    48   25   26 ar   
    49   25   28 1    
    50   26   27 ar   
    51   26   52 1    
    52   27   53 1    
    53   28   29 1    
    54   28   30 1    
    55   28   31 1    
    56   29   54 1    
    57   29   55 1    
    58   29   56 1    
    59   30   57 1    
    60   30   58 1    
    61   30   59 1    
    62   31   60 1    
    63   31   61 1    
    64   31   62 1    
    65   32   63 1    
    66   32   64 1    
@<TRIPOS>SUBSTRUCTURE
     1 <0>         1 GROUP             0       ****    0 ROOT    
@<TRIPOS>MOLECULE
ZINC01206898
56   58    1
SMALL
USER_CHARGES


@<TRIPOS>ATOM
      1 C1          5.7843   14.7419    6.5296 C.3       1 <0>        -0.1287 
      2 C2          6.6147   14.2202    5.3726 C.ar      1 <0>        -0.0736 
      3 C3          6.9354   15.0675    4.3116 C.ar      1 <0>        -0.1190 
      4 C4          7.7116   14.5977    3.2552 C.ar      1 <0>        -0.1067 
      5 C5          8.1706   13.2784    3.2539 C.ar      1 <0>         0.0254 
      6 C6          7.8108   12.4247    4.3007 C.ar      1 <0>        -0.1067 
      7 C7          7.0452   12.8939    5.3633 C.ar      1 <0>        -0.1190 
      8 N1          8.9663   12.8234    2.1825 N.pl3     1 <0>        -0.2283 
      9 C8         10.2545   12.1736    2.4220 C.3       1 <0>        -0.0326 
     10 C9         11.3025   13.0508    3.1560 C.2       1 <0>         0.4884 
     11 O1         10.9271   13.9360    3.9226 O.2       1 <0>        -0.4850 
     12 N2         12.6050   12.7701    2.9103 N.am      1 <0>        -0.3963 
     13 C10        13.7642   13.4389    3.3704 C.ar      1 <0>         0.0257 
     14 C11        14.9721   13.1049    2.7501 C.ar      1 <0>        -0.1171 
     15 C12        16.1528   13.7703    3.0911 C.ar      1 <0>        -0.1195 
     16 C13        16.1446   14.7760    4.0656 C.ar      1 <0>        -0.0675 
     17 C14        14.9451   15.0707    4.7181 C.ar      1 <0>        -0.1195 
     18 C15        13.7682   14.4132    4.3811 C.ar      1 <0>        -0.1171 
     19 C16        17.3967   15.5886    4.4551 C.3       1 <0>        -0.0413 
     20 C17        18.0411   15.1191    5.7667 C.3       1 <0>        -0.1665 
     21 C18        18.4533   15.7293    3.3430 C.3       1 <0>        -0.1665 
     22 S1          8.1061   12.4691    0.6562 S.o2      1 <0>         0.8709 
     23 O2          9.1135   12.2166   -0.3791 O.2       1 <0>        -0.4765 
     24 O3          7.0667   13.4896    0.4749 O.2       1 <0>        -0.4765 
     25 C19         7.2731   10.9190    0.9830 C.ar      1 <0>        -0.2182 
     26 C20         6.0836   10.9143    1.7140 C.ar      1 <0>        -0.0043 
     27 C21         5.4668    9.7030    2.0213 C.ar      1 <0>        -0.1890 
     28 C22         6.0434    8.5065    1.6030 C.ar      1 <0>         0.2645 
     29 C23         7.2263    8.5110    0.8691 C.ar      1 <0>        -0.1890 
     30 C24         7.8418    9.7192    0.5564 C.ar      1 <0>        -0.0043 
     31 F1          5.4525    7.3326    1.9169 F         1 <0>        -0.2084 
     32 H1          4.8494   15.1631    6.1622 H         1 <0>         0.0715 
     33 H2          5.5395   13.9569    7.2477 H         1 <0>         0.0715 
     34 H3          6.3188   15.5358    7.0512 H         1 <0>         0.0715 
     35 H4          6.5858   16.0892    4.3062 H         1 <0>         0.1371 
     36 H5          7.9575   15.2556    2.4350 H         1 <0>         0.1391 
     37 H6          8.0991   11.3870    4.2850 H         1 <0>         0.1391 
     38 H7          6.7852   12.2263    6.1726 H         1 <0>         0.1371 
     39 H8         10.1762   11.1832    2.8821 H         1 <0>         0.0606 
     40 H9         10.7088   11.9249    1.4630 H         1 <0>         0.0606 
     41 H10        12.7845   12.0051    2.2761 H         1 <0>         0.2938 
     42 H11        14.9971   12.3513    1.9768 H         1 <0>         0.1385 
     43 H12        17.0655   13.5052    2.5804 H         1 <0>         0.1345 
     44 H13        14.9191   15.8255    5.4904 H         1 <0>         0.1345 
     45 H14        12.8799   14.6899    4.9217 H         1 <0>         0.1385 
     46 H15        17.0529   16.6039    4.6621 H         1 <0>         0.0729 
     47 H16        18.5181   14.1485    5.6465 H         1 <0>         0.0628 
     48 H17        18.8116   15.8163    6.0954 H         1 <0>         0.0628 
     49 H18        17.3080   15.0540    6.5714 H         1 <0>         0.0628 
     50 H19        18.0245   16.2034    2.4659 H         1 <0>         0.0628 
     51 H20        19.2807   16.3628    3.6655 H         1 <0>         0.0628 
     52 H21        18.8836   14.7713    3.0479 H         1 <0>         0.0628 
     53 H22         5.6467   11.8410    2.0572 H         1 <0>         0.1582 
     54 H23         4.5552    9.6881    2.5995 H         1 <0>         0.1541 
     55 H24         7.6744    7.5794    0.5554 H         1 <0>         0.1541 
     56 H25         8.7711    9.7121    0.0057 H         1 <0>         0.1582 
@<TRIPOS>BOND
     1    1    2 1    
     2    1   32 1    
     3    1   33 1    
     4    1   34 1    
     5    2    7 ar   
     6    2    3 ar   
     7    3    4 ar   
     8    3   35 1    
     9    4    5 ar   
    10    4   36 1    
    11    5    6 ar   
    12    5    8 1    
    13    6    7 ar   
    14    6   37 1    
    15    7   38 1    
    16    8    9 1    
    17    8   22 1    
    18    9   10 1    
    19    9   39 1    
    20    9   40 1    
    21   10   11 2    
    22   10   12 am   BACKBONE|DICT|INTERRES
    23   12   13 1    
    24   12   41 1    
    25   13   18 ar   
    26   13   14 ar   
    27   14   15 ar   
    28   14   42 1    
    29   15   16 ar   
    30   15   43 1    
    31   16   17 ar   
    32   16   19 1    
    33   17   18 ar   
    34   17   44 1    
    35   18   45 1    
    36   19   20 1    
    37   19   21 1    
    38   19   46 1    
    39   20   47 1    
    40   20   48 1    
    41   20   49 1    
    42   21   50 1    
    43   21   51 1    
    44   21   52 1    
    45   22   23 2    
    46   22   24 2    
    47   22   25 1    
    48   25   30 ar   
    49   25   26 ar   
    50   26   27 ar   
    51   26   53 1    
    52   27   28 ar   
    53   27   54 1    
    54   28   29 ar   
    55   28   31 1    
    56   29   30 ar   
    57   29   55 1    
    58   30   56 1    
@<TRIPOS>SUBSTRUCTURE
     1 <0>         1 GROUP             0       ****    0 ROOT    
@<TRIPOS>MOLECULE
ZINC02852780
56   58    1
SMALL
USER_CHARGES


@<TRIPOS>ATOM
      1 C1         13.7548   12.8460    4.0503 C.3       1 <0>        -0.1373 
      2 C2         12.3179   13.0539    3.6077 C.ar      1 <0>        -0.0253 
      3 C3         11.8569   12.4330    2.4467 C.ar      1 <0>        -0.1498 
      4 C4         10.5444   12.6297    2.0269 C.ar      1 <0>        -0.0259 
      5 C5          9.6902   13.4472    2.7709 C.ar      1 <0>        -0.2008 
      6 C6         10.1368   14.0317    3.9582 C.ar      1 <0>        -0.0259 
      7 C7         11.4569   13.8524    4.3639 C.ar      1 <0>        -0.1498 
      8 S1          8.0267   13.7723    2.1719 S.o2      1 <0>         0.8685 
      9 O1          8.1025   13.8333    0.7094 O.2       1 <0>        -0.4793 
     10 O2          7.5155   14.9138    2.9425 O.2       1 <0>        -0.4793 
     11 N1          7.0608   12.3192    2.5974 N.pl3     1 <0>        -0.2363 
     12 C8          7.4053   11.0062    2.0736 C.3       1 <0>        -0.0254 
     13 C9          7.2508   10.8621    0.5542 C.2       1 <0>         0.4879 
     14 O3          6.3995   11.5156   -0.0557 O.2       1 <0>        -0.4821 
     15 N2          8.0790    9.9764   -0.0347 N.am      1 <0>        -0.3792 
     16 C10         8.2266    9.7924   -1.4191 C.ar      1 <0>        -0.0423 
     17 C11         8.1355    8.4974   -1.9447 C.ar      1 <0>         0.2109 
     18 C12         8.3289    8.2808   -3.3104 C.ar      1 <0>        -0.1804 
     19 C13         8.6320    9.3465   -4.1560 C.ar      1 <0>        -0.0743 
     20 C14         8.7414   10.6351   -3.6343 C.ar      1 <0>        -0.1804 
     21 C15         8.5355   10.8635   -2.2741 C.ar      1 <0>         0.2109 
     22 F1          8.6630   12.1206   -1.7925 F         1 <0>        -0.1657 
     23 F2          7.8507    7.4433   -1.1449 F         1 <0>        -0.1657 
     24 C16         6.3068   12.3673    3.7759 C.ar      1 <0>         0.0294 
     25 C17         6.7046   11.6485    4.9054 C.ar      1 <0>        -0.1090 
     26 C18         5.9378   11.7023    6.0618 C.ar      1 <0>        -0.1142 
     27 C19         4.7754   12.4771    6.0953 C.ar      1 <0>        -0.0678 
     28 C20         4.3882   13.2062    4.9685 C.ar      1 <0>        -0.1142 
     29 C21         5.1542   13.1521    3.8105 C.ar      1 <0>        -0.1090 
     30 C22         3.9408   12.5257    7.3706 C.3       1 <0>        -0.0404 
     31 C23         3.9746   13.9172    8.0316 C.3       1 <0>        -0.1665 
     32 C24         2.5006   12.0308    7.1486 C.3       1 <0>        -0.1665 
     33 H1         14.4292   12.9293    3.1963 H         1 <0>         0.0765 
     34 H2         14.0662   13.5929    4.7810 H         1 <0>         0.0765 
     35 H3         13.8805   11.8508    4.4778 H         1 <0>         0.0765 
     36 H4         12.5146   11.8032    1.8636 H         1 <0>         0.1394 
     37 H5         10.2021   12.1705    1.1101 H         1 <0>         0.1515 
     38 H6          9.4765   14.6483    4.5500 H         1 <0>         0.1515 
     39 H7         11.8102   14.3239    5.2664 H         1 <0>         0.1394 
     40 H8          8.4260   10.7459    2.3525 H         1 <0>         0.0631 
     41 H9          6.7954   10.2030    2.4904 H         1 <0>         0.0631 
     42 H10         8.6633    9.3905    0.5469 H         1 <0>         0.2973 
     43 H11         8.2478    7.2827   -3.7111 H         1 <0>         0.1536 
     44 H12         8.7831    9.1759   -5.2115 H         1 <0>         0.1464 
     45 H13         9.0036   11.4665   -4.2758 H         1 <0>         0.1536 
     46 H14         7.6059   11.0514    4.8883 H         1 <0>         0.1385 
     47 H15         6.2499   11.1450    6.9342 H         1 <0>         0.1359 
     48 H16         3.4952   13.8122    4.9900 H         1 <0>         0.1359 
     49 H17         4.8498   13.7134    2.9388 H         1 <0>         0.1385 
     50 H18         4.4071   11.8277    8.0650 H         1 <0>         0.0706 
     51 H19         3.4626   14.6662    7.4278 H         1 <0>         0.0630 
     52 H20         3.4954   13.8945    9.0106 H         1 <0>         0.0630 
     53 H21         4.9996   14.2583    8.1850 H         1 <0>         0.0630 
     54 H22         1.9737   11.9241    8.0962 H         1 <0>         0.0630 
     55 H23         1.9250   12.7124    6.5244 H         1 <0>         0.0630 
     56 H24         2.4932   11.0517    6.6714 H         1 <0>         0.0630 
@<TRIPOS>BOND
     1    1    2 1    
     2    1   33 1    
     3    1   34 1    
     4    1   35 1    
     5    2    7 ar   
     6    2    3 ar   
     7    3    4 ar   
     8    3   36 1    
     9    4    5 ar   
    10    4   37 1    
    11    5    6 ar   
    12    5    8 1    
    13    6    7 ar   
    14    6   38 1    
    15    7   39 1    
    16    8    9 2    
    17    8   10 2    
    18    8   11 1    
    19   11   12 1    
    20   11   24 1    
    21   12   13 1    
    22   12   40 1    
    23   12   41 1    
    24   13   14 2    
    25   13   15 am   BACKBONE|DICT|INTERRES
    26   15   16 1    
    27   15   42 1    
    28   16   21 ar   
    29   16   17 ar   
    30   17   18 ar   
    31   17   23 1    
    32   18   19 ar   
    33   18   43 1    
    34   19   20 ar   
    35   19   44 1    
    36   20   21 ar   
    37   20   45 1    
    38   21   22 1    
    39   24   29 ar   
    40   24   25 ar   
    41   25   26 ar   
    42   25   46 1    
    43   26   27 ar   
    44   26   47 1    
    45   27   28 ar   
    46   27   30 1    
    47   28   29 ar   
    48   28   48 1    
    49   29   49 1    
    50   30   31 1    
    51   30   32 1    
    52   30   50 1    
    53   31   51 1    
    54   31   52 1    
    55   31   53 1    
    56   32   54 1    
    57   32   55 1    
    58   32   56 1    
@<TRIPOS>SUBSTRUCTURE
     1 <0>         1 GROUP             0       ****    0 ROOT    
@<TRIPOS>MOLECULE
ZINC02982573
56   58    1
SMALL
USER_CHARGES


@<TRIPOS>ATOM
      1 C1          3.5525   13.3307   -2.0183 C.3       1 <0>        -0.1372 
      2 C2          4.2390   13.7357   -0.7277 C.ar      1 <0>        -0.0257 
      3 C3          3.6446   13.4316    0.4991 C.ar      1 <0>        -0.1502 
      4 C4          4.2813   13.7827    1.6856 C.ar      1 <0>        -0.0266 
      5 C5          5.5115   14.4423    1.6415 C.ar      1 <0>        -0.2028 
      6 C6          6.1129   14.7377    0.4157 C.ar      1 <0>        -0.0266 
      7 C7          5.4737   14.3862   -0.7692 C.ar      1 <0>        -0.1502 
      8 S1          6.3731   14.8097    3.1657 S.o2      1 <0>         0.8616 
      9 O1          5.3541   14.9888    4.2058 O.2       1 <0>        -0.4828 
     10 O2          7.3527   15.8604    2.8650 O.2       1 <0>        -0.4828 
     11 N1          7.2778   13.3136    3.5511 N.pl3     1 <0>        -0.2042 
     12 C8          8.6485   13.1676    3.1105 C.3       1 <0>        -0.0412 
     13 C9          9.6502   13.8141    4.0836 C.2       1 <0>         0.5112 
     14 O3          9.3043   14.2536    5.1816 O.2       1 <0>        -0.5034 
     15 N2         10.9221   13.8647    3.6668 N.am      1 <0>        -0.5774 
     16 C10        12.0114   14.4153    4.4701 C.3       1 <0>         0.1624 
     17 C11        13.3976   13.9814    4.0138 C.ar      1 <0>        -0.1165 
     18 C12        13.6125   12.6934    3.5113 C.ar      1 <0>        -0.1011 
     19 C13        14.8889   12.3026    3.1314 C.ar      1 <0>        -0.1247 
     20 C14        15.9523   13.1894    3.2540 C.ar      1 <0>         0.0786 
     21 C15        15.7386   14.4938    3.6906 C.ar      1 <0>        -0.1247 
     22 C16        14.4606   14.8884    4.0792 C.ar      1 <0>        -0.1011 
     23 Cl1        17.5443   12.6554    2.8641 Cl        1 <0>        -0.1534 
     24 C17         6.5484   12.1675    3.9130 C.ar      1 <0>         0.0112 
     25 C18         6.1145   12.0725    5.2399 C.ar      1 <0>        -0.1351 
     26 C19         5.3861   10.9675    5.6730 C.ar      1 <0>        -0.1321 
     27 C20         5.0789    9.9410    4.7808 C.ar      1 <0>        -0.0670 
     28 C21         5.5114   10.0228    3.4567 C.ar      1 <0>        -0.1254 
     29 C22         6.2534   11.1211    3.0127 C.ar      1 <0>        -0.0131 
     30 C23         6.7103   11.1220    1.5597 C.3       1 <0>        -0.1370 
     31 C24         4.2884    8.7414    5.2577 C.3       1 <0>        -0.1286 
     32 H1          2.7929   14.0612   -2.2946 H         1 <0>         0.0765 
     33 H2          4.2657   13.2315   -2.8378 H         1 <0>         0.0765 
     34 H3          3.0678   12.3600   -1.9052 H         1 <0>         0.0765 
     35 H4          2.6944   12.9183    0.5357 H         1 <0>         0.1393 
     36 H5          3.8294   13.5273    2.6342 H         1 <0>         0.1514 
     37 H6          7.0736   15.2293    0.3780 H         1 <0>         0.1514 
     38 H7          5.9423   14.6126   -1.7168 H         1 <0>         0.1393 
     39 H8          8.8041   13.5758    2.1109 H         1 <0>         0.0611 
     40 H9          8.9747   12.1263    3.0611 H         1 <0>         0.0611 
     41 H10        11.1498   13.5630    2.7304 H         1 <0>         0.2977 
     42 H11        11.9375   15.5035    4.4644 H         1 <0>         0.0895 
     43 H12        11.9054   14.1117    5.5128 H         1 <0>         0.0895 
     44 H13        12.8035   11.9820    3.4268 H         1 <0>         0.1429 
     45 H14        15.0520   11.3079    2.7554 H         1 <0>         0.1461 
     46 H15        16.5695   15.1782    3.7684 H         1 <0>         0.1461 
     47 H16        14.3067   15.8910    4.4513 H         1 <0>         0.1429 
     48 H17         6.3415   12.8590    5.9466 H         1 <0>         0.1248 
     49 H18         5.0631   10.9105    6.7038 H         1 <0>         0.1317 
     50 H19         5.2855    9.2183    2.7721 H         1 <0>         0.1392 
     51 H20         7.5946   10.4940    1.4424 H         1 <0>         0.0830 
     52 H21         5.9270   10.7231    0.9154 H         1 <0>         0.0830 
     53 H22         6.9341   12.1182    1.1843 H         1 <0>         0.0830 
     54 H23         3.3258    9.0551    5.6643 H         1 <0>         0.0711 
     55 H24         4.1124    8.0100    4.4693 H         1 <0>         0.0711 
     56 H25         4.8319    8.2521    6.0632 H         1 <0>         0.0711 
@<TRIPOS>BOND
     1    1    2 1    
     2    1   32 1    
     3    1   33 1    
     4    1   34 1    
     5    2    7 ar   
     6    2    3 ar   
     7    3    4 ar   
     8    3   35 1    
     9    4    5 ar   
    10    4   36 1    
    11    5    6 ar   
    12    5    8 1    
    13    6    7 ar   
    14    6   37 1    
    15    7   38 1    
    16    8    9 2    
    17    8   10 2    
    18    8   11 1    
    19   11   12 1    
    20   11   24 1    
    21   12   13 1    
    22   12   39 1    
    23   12   40 1    
    24   13   14 2    
    25   13   15 am   BACKBONE|DICT|INTERRES
    26   15   16 1    
    27   15   41 1    
    28   16   17 1    
    29   16   42 1    
    30   16   43 1    
    31   17   22 ar   
    32   17   18 ar   
    33   18   19 ar   
    34   18   44 1    
    35   19   20 ar   
    36   19   45 1    
    37   20   21 ar   
    38   20   23 1    
    39   21   22 ar   
    40   21   46 1    
    41   22   47 1    
    42   24   29 ar   
    43   24   25 ar   
    44   25   26 ar   
    45   25   48 1    
    46   26   27 ar   
    47   26   49 1    
    48   27   28 ar   
    49   27   31 1    
    50   28   29 ar   
    51   28   50 1    
    52   29   30 1    
    53   30   51 1    
    54   30   52 1    
    55   30   53 1    
    56   31   54 1    
    57   31   55 1    
    58   31   56 1    
@<TRIPOS>SUBSTRUCTURE
     1 <0>         1 GROUP             0       ****    0 ROOT    
@<TRIPOS>MOLECULE
ZINC08431757
70   73    1
SMALL
USER_CHARGES


@<TRIPOS>ATOM
      1 C1         18.4296   13.4088    3.1585 C.3       1 <0>        -0.1722 
      2 C2         17.2190   12.5600    2.7604 C.3       1 <0>        -0.1287 
      3 C3         15.8928   13.2949    2.9967 C.3       1 <0>        -0.1264 
      4 C4         14.6692   12.4719    2.5662 C.3       1 <0>        -0.1793 
      5 C5         13.3646   13.0628    3.1037 C.3       1 <0>         0.1970 
      6 O1         12.2498   12.3796    2.5370 O.3       1 <0>        -0.3745 
      7 C6         10.9802   12.8128    2.8654 C.ar      1 <0>         0.1680 
      8 C7          9.9033   12.1696    2.2543 C.ar      1 <0>        -0.1829 
      9 C8          8.5949   12.5774    2.5135 C.ar      1 <0>        -0.0708 
     10 C9          8.3540   13.6380    3.3952 C.ar      1 <0>        -0.1181 
     11 C10         9.4278   14.2484    4.0385 C.ar      1 <0>        -0.0708 
     12 C11        10.7282   13.8460    3.7801 C.ar      1 <0>        -0.1829 
     13 C12         6.9606   14.2562    3.5799 C.3       1 <0>         0.1548 
     14 H1          7.1808   15.3125    3.7435 H         1 <0>         0.1027 
     15 C13         6.0985   14.2694    2.2948 C.2       1 <0>        -0.2875 
     16 C14         5.0094   13.4836    2.0622 C.2       1 <0>         0.1118 
     17 C15         4.1506   13.5864    0.7938 C.3       1 <0>        -0.1368 
     18 C16         4.2473   14.9983    0.1487 C.3       1 <0>        -0.0288 
     19 C17         5.7529   15.3228   -0.0352 C.3       1 <0>        -0.1936 
     20 C18         6.5769   15.2232    1.2592 C.2       1 <0>         0.4516 
     21 O2          7.6303   15.8524    1.3628 O.2       1 <0>        -0.4669 
     22 C19         3.5694   16.0653    1.0498 C.3       1 <0>        -0.1697 
     23 C20         3.6140   14.9316   -1.2565 C.3       1 <0>        -0.1697 
     24 N1          4.4466   12.5886    2.9494 N.pl3     1 <0>        -0.3851 
     25 C21         5.0361   11.8131    3.9612 C.ar      1 <0>         0.1629 
     26 C22         4.7241   10.4538    4.0801 C.ar      1 <0>        -0.1758 
     27 C23         5.2210    9.6795    5.1238 C.ar      1 <0>        -0.1003 
     28 C24         6.0590   10.2572    6.0673 C.ar      1 <0>        -0.1418 
     29 C25         6.4109   11.5973    5.9542 C.ar      1 <0>        -0.0751 
     30 C26         5.9033   12.3957    4.9175 C.ar      1 <0>        -0.0007 
     31 N2          6.2519   13.7560    4.7835 N.am      1 <0>        -0.2098 
     32 C27         5.7345   14.6641    5.6740 C.2       1 <0>         0.4407 
     33 O3          6.0496   15.8587    5.6470 O.2       1 <0>        -0.5202 
     34 C28         4.7097   14.2110    6.7463 C.3       1 <0>        -0.1447 
     35 C29         4.0179   15.3574    7.5102 C.3       1 <0>        -0.1575 
     36 H2         18.4216   14.3830    2.6712 H         1 <0>         0.0601 
     37 H3         18.4513   13.5778    4.2358 H         1 <0>         0.0601 
     38 H4         19.3499   12.9088    2.8646 H         1 <0>         0.0601 
     39 H5         17.2309   11.6379    3.3397 H         1 <0>         0.0664 
     40 H6         17.3074   12.2592    1.7155 H         1 <0>         0.0664 
     41 H7         15.8947   14.2450    2.4600 H         1 <0>         0.0659 
     42 H8         15.8107   13.5511    4.0550 H         1 <0>         0.0659 
     43 H9         14.7608   11.4535    2.9383 H         1 <0>         0.0798 
     44 H10        14.6306   12.4017    1.4775 H         1 <0>         0.0798 
     45 H11        13.3162   14.1269    2.8642 H         1 <0>         0.0353 
     46 H12        13.3482   12.9649    4.1921 H         1 <0>         0.0353 
     47 H13        10.0861   11.3593    1.5638 H         1 <0>         0.1381 
     48 H14         7.7756   12.0884    2.0072 H         1 <0>         0.1317 
     49 H15         9.2564   15.0538    4.7287 H         1 <0>         0.1317 
     50 H16        11.5249   14.3606    4.2933 H         1 <0>         0.1381 
     51 H17         4.4655   12.7842    0.1238 H         1 <0>         0.0889 
     52 H18         3.0908   13.4463    1.0193 H         1 <0>         0.0889 
     53 H19         5.9207   16.2966   -0.4943 H         1 <0>         0.0977 
     54 H20         6.1869   14.5815   -0.7054 H         1 <0>         0.0977 
     55 H21         3.6753   17.0635    0.6234 H         1 <0>         0.0668 
     56 H22         2.5004   15.8724    1.1489 H         1 <0>         0.0668 
     57 H23         3.9814   16.1002    2.0587 H         1 <0>         0.0668 
     58 H24         4.1008   14.1886   -1.8894 H         1 <0>         0.0668 
     59 H25         2.5571   14.6702   -1.2029 H         1 <0>         0.0668 
     60 H26         3.6837   15.8930   -1.7689 H         1 <0>         0.0668 
     61 H27         3.6196   12.1418    2.5838 H         1 <0>         0.2742 
     62 H28         4.0613    9.9896    3.3652 H         1 <0>         0.1270 
     63 H29         4.9490    8.6376    5.2109 H         1 <0>         0.1339 
     64 H30         6.4468    9.6701    6.8851 H         1 <0>         0.1375 
     65 H31         7.0671   12.0281    6.6983 H         1 <0>         0.1453 
     66 H32         3.9408   13.5976    6.2755 H         1 <0>         0.0847 
     67 H33         5.2221   13.5809    7.4733 H         1 <0>         0.0847 
     68 H34         4.7328   15.9557    8.0775 H         1 <0>         0.0684 
     69 H35         3.4546   16.0103    6.8415 H         1 <0>         0.0684 
     70 H36         3.3100   14.9504    8.2319 H         1 <0>         0.0684 
@<TRIPOS>BOND
     1    1    2 1    
     2    1   36 1    
     3    1   37 1    
     4    1   38 1    
     5    2    3 1    
     6    2   39 1    
     7    2   40 1    
     8    3    4 1    
     9    3   41 1    
    10    3   42 1    
    11    4    5 1    
    12    4   43 1    
    13    4   44 1    
    14    5    6 1    
    15    5   45 1    
    16    5   46 1    
    17    6    7 1    
    18    7   12 ar   
    19    7    8 ar   
    20    8    9 ar   
    21    8   47 1    
    22    9   10 ar   
    23    9   48 1    
    24   10   11 ar   
    25   10   13 1    
    26   11   12 ar   
    27   11   49 1    
    28   12   50 1    
    29   13   14 1    
    30   13   31 1    
    31   13   15 1    
    32   15   20 1    
    33   15   16 2    
    34   16   17 1    
    35   16   24 1    
    36   17   18 1    
    37   17   51 1    
    38   17   52 1    
    39   18   19 1    
    40   18   22 1    
    41   18   23 1    
    42   19   20 1    
    43   19   53 1    
    44   19   54 1    
    45   20   21 2    
    46   22   55 1    
    47   22   56 1    
    48   22   57 1    
    49   23   58 1    
    50   23   59 1    
    51   23   60 1    
    52   24   25 1    
    53   24   61 1    
    54   25   30 ar   
    55   25   26 ar   
    56   26   27 ar   
    57   26   62 1    
    58   27   28 ar   
    59   27   63 1    
    60   28   29 ar   
    61   28   64 1    
    62   29   30 ar   
    63   29   65 1    
    64   30   31 1    
    65   31   32 am   BACKBONE|DICT|INTERRES
    66   32   33 2    
    67   32   34 1    
    68   34   35 1    
    69   34   66 1    
    70   34   67 1    
    71   35   68 1    
    72   35   69 1    
    73   35   70 1    
@<TRIPOS>SUBSTRUCTURE
     1 <0>         1 GROUP             0       ****    0 ROOT    
@<TRIPOS>MOLECULE
ZINC08438399
62   65    1
SMALL
USER_CHARGES


@<TRIPOS>ATOM
      1 C1         11.8793    7.2536   -6.3275 C.3       1 <0>        -0.2202 
      2 C2         10.8980    8.2730   -6.9132 C.3       1 <0>         0.1580 
      3 O1         10.2040    8.9068   -5.8487 O.3       1 <0>        -0.2945 
      4 C3          9.3813    9.9621   -6.0671 C.2       1 <0>         0.4964 
      5 O2          9.1673   10.4092   -7.2000 O.2       1 <0>        -0.4712 
      6 C4          8.8046   10.5768   -4.8355 C.2       1 <0>        -0.2889 
      7 C5          8.0384   11.6954   -4.8382 C.2       1 <0>         0.2105 
      8 S1          7.6312   12.2516   -3.2020 S.3       1 <0>        -0.0782 
      9 C6          8.5525   10.9577   -2.4430 C.2       1 <0>        -0.1180 
     10 C7          8.8317   10.8258   -1.1265 C.2       1 <0>        -0.0197 
     11 C8          8.5194   11.7076   -0.0110 C.ar      1 <0>        -0.0684 
     12 C9          7.4289   12.5667    0.1445 C.ar      1 <0>        -0.1815 
     13 C10         7.5168   13.2349    1.3520 C.ar      1 <0>        -0.1476 
     14 N1          8.6595   12.7774    1.9884 N.pl3     1 <0>         0.3888 
     15 C11         9.2775   11.8534    1.1531 C.ar      1 <0>        -0.1008 
     16 C12        10.5818   11.1681    1.5369 C.3       1 <0>        -0.1939 
     17 C13         9.1142   13.1827    3.2682 C.ar      1 <0>        -0.1725 
     18 C14        10.4107   13.6844    3.4366 C.ar      1 <0>        -0.1207 
     19 C15        10.8662   14.0314    4.7078 C.ar      1 <0>        -0.1228 
     20 C16        10.0311   13.8850    5.8158 C.ar      1 <0>        -0.1180 
     21 C17         8.7310   13.4027    5.6568 C.ar      1 <0>        -0.0759 
     22 C18         8.2750   13.0533    4.3829 C.ar      1 <0>        -0.1154 
     23 C19         7.8240   13.2377    6.8615 C.3       1 <0>        -0.1287 
     24 C20         6.5968   14.2886    1.9384 C.3       1 <0>        -0.1801 
     25 C21         9.0433   10.0551   -3.4726 C.2       1 <0>         0.4437 
     26 O3          9.6321    9.0053   -3.2049 O.2       1 <0>        -0.4458 
     27 N2          7.6493   12.4501   -5.9328 N.pl3     1 <0>        -0.4626 
     28 C22         6.5489   13.3028   -6.1172 C.ar      1 <0>         0.2192 
     29 C23         5.3744   13.2050   -5.3623 C.ar      1 <0>        -0.1647 
     30 C24         4.3152   14.0770   -5.5993 C.ar      1 <0>        -0.0944 
     31 C25         4.4178   15.0400   -6.6037 C.ar      1 <0>        -0.1085 
     32 C26         5.5773   15.1259   -7.3758 C.ar      1 <0>        -0.0944 
     33 C27         6.6357   14.2537   -7.1357 C.ar      1 <0>        -0.1647 
     34 C28         3.2611   15.9912   -6.8506 C.3       1 <0>        -0.1231 
     35 H1         12.6116    7.7422   -5.6837 H         1 <0>         0.0738 
     36 H2         11.3583    6.5032   -5.7324 H         1 <0>         0.0738 
     37 H3         12.4227    6.7369   -7.1181 H         1 <0>         0.0738 
     38 H4         10.1866    7.7788   -7.5769 H         1 <0>         0.0418 
     39 H5         11.4438    9.0114   -7.5027 H         1 <0>         0.0418 
     40 H6          9.4137    9.9671   -0.8178 H         1 <0>         0.1538 
     41 H7          6.6342   12.7004   -0.5742 H         1 <0>         0.1811 
     42 H8         11.4452   11.8072    1.3551 H         1 <0>         0.0786 
     43 H9         10.6056   10.8830    2.5868 H         1 <0>         0.0786 
     44 H10        10.7560   10.2539    0.9729 H         1 <0>         0.0786 
     45 H11        11.0723   13.7981    2.5893 H         1 <0>         0.1464 
     46 H12        11.8712   14.4065    4.8358 H         1 <0>         0.1395 
     47 H13        10.3977   14.1485    6.7975 H         1 <0>         0.1370 
     48 H14         7.2792   12.6477    4.2694 H         1 <0>         0.1477 
     49 H15         7.9127   12.2287    7.2645 H         1 <0>         0.0741 
     50 H16         8.0602   13.9560    7.6469 H         1 <0>         0.0741 
     51 H17         6.7800   13.4067    6.5947 H         1 <0>         0.0741 
     52 H18         5.9811   13.8903    2.7444 H         1 <0>         0.0746 
     53 H19         7.1498   15.1381    2.3394 H         1 <0>         0.0746 
     54 H20         5.9134   14.6862    1.1880 H         1 <0>         0.0746 
     55 H21         8.2068   12.3322   -6.7652 H         1 <0>         0.3181 
     56 H22         5.2681   12.4522   -4.5967 H         1 <0>         0.1373 
     57 H23         3.4161   13.9987   -5.0051 H         1 <0>         0.1345 
     58 H24         5.6618   15.8650   -8.1590 H         1 <0>         0.1345 
     59 H25         7.5302   14.3319   -7.7362 H         1 <0>         0.1373 
     60 H26         2.3842   15.4396   -7.1926 H         1 <0>         0.0682 
     61 H27         2.9878   16.4967   -5.9236 H         1 <0>         0.0682 
     62 H28         3.5052   16.7547   -7.5897 H         1 <0>         0.0682 
@<TRIPOS>BOND
     1    1    2 1    
     2    1   35 1    
     3    1   36 1    
     4    1   37 1    
     5    2    3 1    
     6    2   38 1    
     7    2   39 1    
     8    3    4 1    
     9    4    5 2    
    10    4    6 1    
    11    6   25 1    
    12    6    7 2    
    13    7    8 1    
    14    7   27 1    
    15    8    9 1    
    16    9   10 2    
    17    9   25 1    
    18   10   11 1    
    19   10   40 1    
    20   11   15 ar   
    21   11   12 ar   
    22   12   13 ar   
    23   12   41 1    
    24   13   14 ar   
    25   13   24 1    
    26   14   15 ar   
    27   14   17 1    
    28   15   16 1    
    29   16   42 1    
    30   16   43 1    
    31   16   44 1    
    32   17   22 ar   
    33   17   18 ar   
    34   18   19 ar   
    35   18   45 1    
    36   19   20 ar   
    37   19   46 1    
    38   20   21 ar   
    39   20   47 1    
    40   21   22 ar   
    41   21   23 1    
    42   22   48 1    
    43   23   49 1    
    44   23   50 1    
    45   23   51 1    
    46   24   52 1    
    47   24   53 1    
    48   24   54 1    
    49   25   26 2    
    50   27   28 1    
    51   27   55 1    
    52   28   33 ar   
    53   28   29 ar   
    54   29   30 ar   
    55   29   56 1    
    56   30   31 ar   
    57   30   57 1    
    58   31   32 ar   
    59   31   34 1    
    60   32   33 ar   
    61   32   58 1    
    62   33   59 1    
    63   34   60 1    
    64   34   61 1    
    65   34   62 1    
@<TRIPOS>SUBSTRUCTURE
     1 <0>         1 GROUP             0       ****    0 ROOT    
@<TRIPOS>MOLECULE
ZINC02783304
64   66    1
SMALL
USER_CHARGES


@<TRIPOS>ATOM
      1 C1          2.6526   13.1938   -4.0932 C.3       1 <0>        -0.1711 
      2 C2          3.3543   14.5589   -3.9865 C.3       1 <0>        -0.1281 
      3 C3          3.8785   14.9042   -2.5720 C.3       1 <0>        -0.0804 
      4 H1          3.0352   14.7939   -1.8867 H         1 <0>         0.0770 
      5 C4          4.4177   16.3464   -2.5237 C.3       1 <0>        -0.1271 
      6 C5          4.7106   16.8042   -1.0802 C.3       1 <0>        -0.1388 
      7 C6          5.5256   15.7400   -0.3243 C.2       1 <0>         0.0444 
      8 C7          5.6373   14.4403   -0.8481 C.2       1 <0>        -0.0910 
      9 S1          6.6987   13.4515    0.0719 S.3       1 <0>         0.0939 
     10 C8          6.9881   14.7473    1.2002 C.2       1 <0>         0.0366 
     11 C9          6.2542   15.9196    0.8977 C.2       1 <0>        -0.0411 
     12 C10         6.2830   17.1302    1.7554 C.2       1 <0>         0.4224 
     13 O1          6.8317   17.1627    2.8584 O.2       1 <0>        -0.4247 
     14 O2          5.6385   18.1869    1.2144 O.3       1 <0>        -0.3191 
     15 C11         5.5767   19.4500    1.8720 C.3       1 <0>         0.1531 
     16 C12         4.5228   19.4652    2.9927 C.3       1 <0>        -0.2213 
     17 N1          7.8754   14.6130    2.2742 N.am      1 <0>        -0.3351 
     18 C13         8.6942   13.5842    2.5959 C.2       1 <0>         0.4480 
     19 O3          8.7306   12.5095    1.9964 O.2       1 <0>        -0.5086 
     20 C14         9.6437   13.8266    3.7953 C.3       1 <0>         0.1808 
     21 H2          9.8899   14.8872    3.8031 H         1 <0>         0.0801 
     22 C15         8.9324   13.4299    5.1138 C.3       1 <0>        -0.1675 
     23 C16         9.7741   13.6111    6.3876 C.3       1 <0>        -0.1728 
     24 O4         10.7971   12.9955    3.5983 O.3       1 <0>        -0.3869 
     25 C17        12.0908   13.4654    3.7190 C.ar      1 <0>         0.1445 
     26 C18        12.4567   14.6324    4.3999 C.ar      1 <0>        -0.1592 
     27 C19        13.7894   15.0400    4.4405 C.ar      1 <0>        -0.0964 
     28 C20        14.7825   14.2907    3.8067 C.ar      1 <0>        -0.1085 
     29 C21        14.4322   13.0997    3.1514 C.ar      1 <0>        -0.0438 
     30 C22        13.0924   12.6965    3.1240 C.ar      1 <0>        -0.1915 
     31 C23        15.4810   12.2615    2.4385 C.3       1 <0>        -0.1260 
     32 C24        16.2225   14.7866    3.8486 C.3       1 <0>        -0.1205 
     33 C25         5.0033   13.9336   -2.1394 C.3       1 <0>        -0.1263 
     34 H3          3.3303   12.3691   -3.8797 H         1 <0>         0.0599 
     35 H4          1.8127   13.1267   -3.4017 H         1 <0>         0.0599 
     36 H5          2.2625   13.0393   -5.0991 H         1 <0>         0.0599 
     37 H6          2.6461   15.3256   -4.3030 H         1 <0>         0.0650 
     38 H7          4.1749   14.5967   -4.7051 H         1 <0>         0.0650 
     39 H8          3.6797   17.0260   -2.9517 H         1 <0>         0.0712 
     40 H9          5.2875   16.4519   -3.1750 H         1 <0>         0.0712 
     41 H10         3.7765   17.0053   -0.5531 H         1 <0>         0.0843 
     42 H11         5.2467   17.7512   -1.1445 H         1 <0>         0.0843 
     43 H12         6.5591   19.7319    2.2566 H         1 <0>         0.0451 
     44 H13         5.3142   20.2024    1.1249 H         1 <0>         0.0451 
     45 H14         3.5386   19.1854    2.6124 H         1 <0>         0.0734 
     46 H15         4.7786   18.7671    3.7926 H         1 <0>         0.0734 
     47 H16         4.4409   20.4596    3.4352 H         1 <0>         0.0734 
     48 H17         7.8933   15.4257    2.8716 H         1 <0>         0.3029 
     49 H18         8.6052   12.3911    5.0515 H         1 <0>         0.0931 
     50 H19         8.0189   14.0163    5.2304 H         1 <0>         0.0931 
     51 H20         9.2246   13.2593    7.2623 H         1 <0>         0.0656 
     52 H21        10.7093   13.0542    6.3407 H         1 <0>         0.0656 
     53 H22        10.0180   14.6588    6.5557 H         1 <0>         0.0656 
     54 H23        11.7118   15.2528    4.8642 H         1 <0>         0.1402 
     55 H24        14.0495   15.9557    4.9478 H         1 <0>         0.1351 
     56 H25        12.8123   11.7901    2.6061 H         1 <0>         0.1394 
     57 H26        16.0370   12.8904    1.7495 H         1 <0>         0.0714 
     58 H27        16.1908   11.8525    3.1566 H         1 <0>         0.0714 
     59 H28        15.0467   11.4545    1.8524 H         1 <0>         0.0714 
     60 H29        16.5043   15.2159    2.8866 H         1 <0>         0.0675 
     61 H30        16.3716   15.5335    4.6290 H         1 <0>         0.0675 
     62 H31        16.9118   13.9708    4.0652 H         1 <0>         0.0675 
     63 H32         5.7691   13.8844   -2.9158 H         1 <0>         0.0787 
     64 H33         4.6137   12.9242   -2.0030 H         1 <0>         0.0787 
@<TRIPOS>BOND
     1    1    2 1    
     2    1   34 1    
     3    1   35 1    
     4    1   36 1    
     5    2    3 1    
     6    2   37 1    
     7    2   38 1    
     8    3    4 1    
     9    3   33 1    
    10    3    5 1    
    11    5    6 1    
    12    5   39 1    
    13    5   40 1    
    14    6    7 1    
    15    6   41 1    
    16    6   42 1    
    17    7   11 1    
    18    7    8 2    
    19    8    9 1    
    20    8   33 1    
    21    9   10 1    
    22   10   11 2    
    23   10   17 am   BACKBONE|DICT|INTERRES
    24   11   12 1    
    25   12   13 2    
    26   12   14 1    
    27   14   15 1    
    28   15   16 1    
    29   15   43 1    
    30   15   44 1    
    31   16   45 1    
    32   16   46 1    
    33   16   47 1    
    34   17   18 am   BACKBONE|DICT|INTERRES
    35   17   48 1    
    36   18   19 2    
    37   18   20 1    
    38   20   21 1    
    39   20   22 1    
    40   20   24 1    
    41   22   23 1    
    42   22   49 1    
    43   22   50 1    
    44   23   51 1    
    45   23   52 1    
    46   23   53 1    
    47   24   25 1    
    48   25   30 ar   
    49   25   26 ar   
    50   26   27 ar   
    51   26   54 1    
    52   27   28 ar   
    53   27   55 1    
    54   28   29 ar   
    55   28   32 1    
    56   29   30 ar   
    57   29   31 1    
    58   30   56 1    
    59   31   57 1    
    60   31   58 1    
    61   31   59 1    
    62   32   60 1    
    63   32   61 1    
    64   32   62 1    
    65   33   63 1    
    66   33   64 1    
@<TRIPOS>SUBSTRUCTURE
     1 <0>         1 GROUP             0       ****    0 ROOT    
@<TRIPOS>MOLECULE
ZINC08861130
56   60    1
SMALL
USER_CHARGES


@<TRIPOS>ATOM
      1 C1          4.7761   18.5461   -1.9325 C.ar      1 <0>        -0.1045 
      2 C2          4.4004   17.7526   -3.0113 C.ar      1 <0>        -0.1298 
      3 C3          4.4340   16.3636   -2.9150 C.ar      1 <0>        -0.1023 
      4 C4          4.8536   15.7389   -1.7140 C.ar      1 <0>        -0.0582 
      5 C5          4.9198   14.3282   -1.5881 C.ar      1 <0>        -0.0074 
      6 C6          5.3411   13.7429   -0.3924 C.ar      1 <0>        -0.1910 
      7 C7          5.6928   14.5452    0.6928 C.ar      1 <0>        -0.0420 
      8 C8          5.6509   15.9328    0.5970 C.ar      1 <0>        -0.1258 
      9 C9          5.2329   16.5550   -0.6041 C.ar      1 <0>         0.0032 
     10 C10         5.1885   17.9654   -0.7361 C.ar      1 <0>        -0.1281 
     11 S1          5.4100   11.9547   -0.2299 S.o2      1 <0>         0.9172 
     12 O1          5.0861   11.3800   -1.5407 O.2       1 <0>        -0.4686 
     13 O2          4.6088   11.6260    0.9547 O.2       1 <0>        -0.4686 
     14 N1          7.0959   11.5614    0.1191 N.pl3     1 <0>        -0.2457 
     15 N2          7.6626   12.0551    1.2393 N.2       1 <0>        -0.3700 
     16 C11         8.9286   12.0336    1.3143 C.2       1 <0>         0.1598 
     17 C12         9.6728   12.6517    2.4193 C.ar      1 <0>         0.0000 
     18 C13         9.0288   13.2135    3.5333 C.ar      1 <0>        -0.1237 
     19 C14         9.7555   13.8745    4.5211 C.ar      1 <0>        -0.1030 
     20 C15        11.1373   13.9980    4.4025 C.ar      1 <0>        -0.1903 
     21 C16        11.8080   13.4213    3.3148 C.ar      1 <0>         0.1506 
     22 C17        11.0687   12.7366    2.3487 C.ar      1 <0>        -0.1386 
     23 O3         13.1701   13.4767    3.1172 O.3       1 <0>        -0.3664 
     24 C18        13.9809   14.3022    3.9518 C.3       1 <0>         0.2102 
     25 C19        15.4658   14.0749    3.6644 C.ar      1 <0>        -0.0887 
     26 C20        15.8758   13.0012    2.8643 C.ar      1 <0>        -0.1026 
     27 C21        17.2206   12.7100    2.6945 C.ar      1 <0>        -0.1344 
     28 C22        18.1913   13.5214    3.2638 C.ar      1 <0>        -0.1048 
     29 C23        17.8358   14.6172    4.0789 C.ar      1 <0>        -0.0403 
     30 C24        16.4520   14.8926    4.3190 C.ar      1 <0>        -0.0103 
     31 C25        16.1311   15.9114    5.2645 C.ar      1 <0>        -0.1129 
     32 C26        17.1352   16.6531    5.8807 C.ar      1 <0>        -0.1238 
     33 C27        18.4716   16.4191    5.5855 C.ar      1 <0>        -0.1260 
     34 C28        18.8308   15.4114    4.6987 C.ar      1 <0>        -0.1172 
     35 H1          4.7466   19.6219   -2.0247 H         1 <0>         0.1354 
     36 H2          4.0841   18.2180   -3.9329 H         1 <0>         0.1360 
     37 H3          4.1489   15.7551   -3.7608 H         1 <0>         0.1358 
     38 H4          4.6395   13.7137   -2.4319 H         1 <0>         0.1390 
     39 H5          6.0002   14.0891    1.6231 H         1 <0>         0.1589 
     40 H6          5.9345   16.5422    1.4426 H         1 <0>         0.1413 
     41 H7          5.4813   18.5880    0.0965 H         1 <0>         0.1382 
     42 H8          7.7022   11.4584   -0.6988 H         1 <0>         0.2572 
     43 H9          9.5450   11.5798    0.5398 H         1 <0>         0.0653 
     44 H10         7.9542   13.1505    3.6345 H         1 <0>         0.1511 
     45 H11         9.2439   14.3020    5.3704 H         1 <0>         0.1379 
     46 H12        11.6739   14.5392    5.1638 H         1 <0>         0.1329 
     47 H13        11.6000   12.3057    1.5108 H         1 <0>         0.1428 
     48 H14        13.8144   14.0722    5.0053 H         1 <0>         0.0412 
     49 H15        13.7259   15.3485    3.7745 H         1 <0>         0.0412 
     50 H16        15.1483   12.3555    2.3931 H         1 <0>         0.1318 
     51 H17        17.5241   11.8756    2.0804 H         1 <0>         0.1329 
     52 H18        19.2317   13.3117    3.0762 H         1 <0>         0.1329 
     53 H19        15.1015   16.1210    5.5110 H         1 <0>         0.1368 
     54 H20        16.8750   17.4238    6.5905 H         1 <0>         0.1324 
     55 H21        19.2391   17.0098    6.0626 H         1 <0>         0.1310 
     56 H22        19.8745   15.2087    4.5021 H         1 <0>         0.1322 
@<TRIPOS>BOND
     1    1   10 ar   
     2    1    2 ar   
     3    1   35 1    
     4    2    3 ar   
     5    2   36 1    
     6    3    4 ar   
     7    3   37 1    
     8    4    9 ar   
     9    4    5 ar   
    10    5    6 ar   
    11    5   38 1    
    12    6    7 ar   
    13    6   11 1    
    14    7    8 ar   
    15    7   39 1    
    16    8    9 ar   
    17    8   40 1    
    18    9   10 ar   
    19   10   41 1    
    20   11   12 2    
    21   11   13 2    
    22   11   14 1    
    23   14   15 1    
    24   14   42 1    
    25   15   16 2    
    26   16   17 1    
    27   16   43 1    
    28   17   22 ar   
    29   17   18 ar   
    30   18   19 ar   
    31   18   44 1    
    32   19   20 ar   
    33   19   45 1    
    34   20   21 ar   
    35   20   46 1    
    36   21   22 ar   
    37   21   23 1    
    38   22   47 1    
    39   23   24 1    
    40   24   25 1    
    41   24   48 1    
    42   24   49 1    
    43   25   30 ar   
    44   25   26 ar   
    45   26   27 ar   
    46   26   50 1    
    47   27   28 ar   
    48   27   51 1    
    49   28   29 ar   
    50   28   52 1    
    51   29   34 ar   
    52   29   30 ar   
    53   30   31 ar   
    54   31   32 ar   
    55   31   53 1    
    56   32   33 ar   
    57   32   54 1    
    58   33   34 ar   
    59   33   55 1    
    60   34   56 1    
@<TRIPOS>SUBSTRUCTURE
     1 <0>         1 GROUP             0       ****    0 ROOT    
@<TRIPOS>MOLECULE
ZINC09085552
55   58    1
SMALL
USER_CHARGES


@<TRIPOS>ATOM
      1 C1          8.8716   12.3841   -0.9675 C.3       1 <0>        -0.1759 
      2 C2          8.6109   11.1868   -0.0276 C.3       1 <0>         0.0067 
      3 H1          9.5608   10.6793    0.1498 H         1 <0>         0.1506 
      4 C3          7.6589   10.1705   -0.6808 C.2       1 <0>         0.4767 
      5 O1          6.6246   10.5540   -1.2336 O.2       1 <0>        -0.5030 
      6 N1          8.0320    8.8776   -0.6194 N.am      1 <0>        -0.3698 
      7 C4          7.3172    7.8149   -1.1796 C.ar      1 <0>         0.0391 
      8 C5          6.2334    7.3047   -0.4561 C.ar      1 <0>        -0.1163 
      9 C6          5.5361    6.1940   -0.9256 C.ar      1 <0>        -0.1218 
     10 C7          5.9294    5.5790   -2.1107 C.ar      1 <0>        -0.1247 
     11 C8          7.0183    6.0764   -2.8259 C.ar      1 <0>        -0.1113 
     12 C9          7.7332    7.1986   -2.3807 C.ar      1 <0>        -0.0293 
     13 C10         8.8847    7.6866   -3.1991 C.ar      1 <0>        -0.0447 
     14 C11         8.9417    9.0143   -3.6415 C.ar      1 <0>        -0.1138 
     15 C12        10.0050    9.4599   -4.4209 C.ar      1 <0>        -0.1321 
     16 C13        11.0139    8.5709   -4.7798 C.ar      1 <0>        -0.1255 
     17 C14        10.9733    7.2462   -4.3529 C.ar      1 <0>        -0.1321 
     18 C15         9.9116    6.8078   -3.5654 C.ar      1 <0>        -0.1138 
     19 S1          7.9177   11.7105    1.5782 S.3       1 <0>        -0.1780 
     20 C16         9.3470   12.4017    2.4641 C.ar      1 <0>         0.5019 
     21 N2         10.5160   12.1570    1.9913 N.2       1 <0>        -0.8718 
     22 C17        11.6646   12.6244    2.6264 C.ar      1 <0>         0.8156 
     23 C18        12.9018   12.2537    2.1156 C.ar      1 <0>        -0.4132 
     24 C19        14.0718   12.7126    2.7198 C.ar      1 <0>         0.1806 
     25 C20        13.9968   13.5594    3.8274 C.ar      1 <0>        -0.2697 
     26 C21        12.7571   13.9359    4.3460 C.ar      1 <0>         0.0425 
     27 C22        11.5907   13.4562    3.7396 C.ar      1 <0>        -0.5126 
     28 C23        10.2245   13.7947    4.2875 C.ar      1 <0>         0.7851 
     29 O2         10.0680   14.5288    5.2647 O.2       1 <0>        -0.5775 
     30 N3          9.1894   13.1847    3.6040 N.pl3     1 <0>        -0.2564 
     31 C24         7.8345   13.4112    4.1691 C.3       1 <0>        -0.0396 
     32 C25         7.1580   14.6701    3.6524 C.2       1 <0>        -0.2003 
     33 C26         6.0274   14.6794    2.9298 C.2       1 <0>        -0.1913 
     34 Cl1        15.6098   12.2535    2.0841 Cl        1 <0>        -0.1426 
     35 H2          9.6288   13.0530   -0.5597 H         1 <0>         0.0784 
     36 H3          9.2320   12.0585   -1.9438 H         1 <0>         0.0784 
     37 H4          7.9682   12.9728   -1.1303 H         1 <0>         0.0784 
     38 H5          8.8990    8.6339   -0.1477 H         1 <0>         0.2977 
     39 H6          5.9335    7.7661    0.4739 H         1 <0>         0.1415 
     40 H7          4.6970    5.8070   -0.3664 H         1 <0>         0.1359 
     41 H8          5.3924    4.7147   -2.4746 H         1 <0>         0.1352 
     42 H9          7.3050    5.5861   -3.7450 H         1 <0>         0.1396 
     43 H10         8.1505    9.7062   -3.3940 H         1 <0>         0.1374 
     44 H11        10.0445   10.4915   -4.7435 H         1 <0>         0.1333 
     45 H12        11.8393    8.9181   -5.3842 H         1 <0>         0.1311 
     46 H13        11.7629    6.5623   -4.6276 H         1 <0>         0.1333 
     47 H14         9.8893    5.7793   -3.2346 H         1 <0>         0.1374 
     48 H15        12.9513   11.5917    1.2644 H         1 <0>         0.2062 
     49 H16        14.9022   13.9226    4.2896 H         1 <0>         0.1782 
     50 H17        12.7188   14.5809    5.2138 H         1 <0>         0.1440 
     51 H18         7.8882   13.5027    5.2565 H         1 <0>         0.1022 
     52 H19         7.1961   12.5392    4.0150 H         1 <0>         0.1022 
     53 H20         7.6336   15.6072    3.8992 H         1 <0>         0.1292 
     54 H21         5.5233   13.7611    2.6638 H         1 <0>         0.1244 
     55 H22         5.5880   15.6068    2.5922 H         1 <0>         0.1244 
@<TRIPOS>BOND
     1    1    2 1    
     2    1   35 1    
     3    1   36 1    
     4    1   37 1    
     5    2    3 1    
     6    2    4 1    
     7    2   19 1    
     8    4    5 2    
     9    4    6 am   BACKBONE|DICT|INTERRES
    10    6    7 1    
    11    6   38 1    
    12    7   12 ar   
    13    7    8 ar   
    14    8    9 ar   
    15    8   39 1    
    16    9   10 ar   
    17    9   40 1    
    18   10   11 ar   
    19   10   41 1    
    20   11   12 ar   
    21   11   42 1    
    22   12   13 1    
    23   13   18 ar   
    24   13   14 ar   
    25   14   15 ar   
    26   14   43 1    
    27   15   16 ar   
    28   15   44 1    
    29   16   17 ar   
    30   16   45 1    
    31   17   18 ar   
    32   17   46 1    
    33   18   47 1    
    34   19   20 1    
    35   20   30 ar   
    36   20   21 ar   
    37   21   22 ar   
    38   22   27 ar   
    39   22   23 ar   
    40   23   24 ar   
    41   23   48 1    
    42   24   25 ar   
    43   24   34 1    
    44   25   26 ar   
    45   25   49 1    
    46   26   27 ar   
    47   26   50 1    
    48   27   28 ar   
    49   28   29 2    
    50   28   30 ar   
    51   30   31 1    
    52   31   32 1    
    53   31   51 1    
    54   31   52 1    
    55   32   33 2    
    56   32   53 1    
    57   33   54 1    
    58   33   55 1    
@<TRIPOS>SUBSTRUCTURE
     1 <0>         1 GROUP             0       ****    0 ROOT    
@<TRIPOS>MOLECULE
ZINC09193486
56   60    1
SMALL
USER_CHARGES


@<TRIPOS>ATOM
      1 C1          6.1233   10.2681    0.9935 C.3       1 <0>        -0.2191 
      2 C2          7.4430   10.9668    1.3398 C.3       1 <0>         0.1948 
      3 O1          7.1997   11.9117    2.3788 O.3       1 <0>        -0.3517 
      4 C3          8.2641   12.5367    3.0082 C.ar      1 <0>         0.1335 
      5 C4          9.6027   12.4117    2.5870 C.ar      1 <0>        -0.1560 
      6 C5         10.6435   13.0561    3.2670 C.ar      1 <0>        -0.0380 
      7 C6         10.3173   13.8487    4.3748 C.ar      1 <0>        -0.0882 
      8 C7          9.0090   13.9797    4.8039 C.ar      1 <0>        -0.1878 
      9 C8          7.9631   13.3332    4.1301 C.ar      1 <0>         0.1521 
     10 O2          6.6402   13.4319    4.5357 O.3       1 <0>        -0.3473 
     11 C9          6.3394   14.2143    5.6963 C.3       1 <0>         0.2076 
     12 C10         4.8509   14.2538    6.0273 C.ar      1 <0>        -0.0854 
     13 C11         3.9322   13.4584    5.3336 C.ar      1 <0>        -0.1021 
     14 C12         2.5779   13.4996    5.6415 C.ar      1 <0>        -0.1340 
     15 C13         2.1049   14.3363    6.6438 C.ar      1 <0>        -0.1055 
     16 C14         2.9951   15.1574    7.3761 C.ar      1 <0>        -0.0399 
     17 C15         4.3963   15.1174    7.0753 C.ar      1 <0>        -0.0088 
     18 C16         5.2690   15.9460    7.8428 C.ar      1 <0>        -0.1097 
     19 C17         4.7735   16.7780    8.8430 C.ar      1 <0>        -0.1252 
     20 C18         3.4140   16.8143    9.1183 C.ar      1 <0>        -0.1264 
     21 C19         2.5269   16.0165    8.4032 C.ar      1 <0>        -0.1178 
     22 C20        12.0469   12.8899    2.8640 C.2       1 <0>         0.1524 
     23 N1         12.9812   13.4987    3.4703 N.2       1 <0>        -0.2864 
     24 N2         14.3009   13.3114    3.0640 N.pl3     1 <0>        -0.4728 
     25 C21        15.3620   14.0062    3.5961 C.2       1 <0>         0.4131 
     26 N3         16.5838   13.8116    3.2033 N.2       1 <0>        -0.5893 
     27 C22        17.4461   14.6153    3.8802 C.ar      1 <0>         0.5981 
     28 C23        18.8275   14.6528    3.6638 C.ar      1 <0>        -0.4432 
     29 C24        19.6022   15.5314    4.4194 C.ar      1 <0>         0.0077 
     30 C25        19.0170   16.3528    5.3847 C.ar      1 <0>        -0.3000 
     31 C26        17.6427   16.3250    5.6329 C.ar      1 <0>        -0.1138 
     32 C27        16.8582   15.4561    4.8638 C.ar      1 <0>        -0.1671 
     33 S1         15.1177   15.2065    4.8630 S.3       1 <0>         0.0115 
     34 H1          5.7110    9.7645    1.8681 H         1 <0>         0.0756 
     35 H2          5.3822   10.9838    0.6386 H         1 <0>         0.0756 
     36 H3          6.2695    9.5179    0.2168 H         1 <0>         0.0756 
     37 H4          7.8459   11.4673    0.4550 H         1 <0>         0.0309 
     38 H5          8.1653   10.2135    1.6643 H         1 <0>         0.0309 
     39 H6          9.8425   11.8004    1.7318 H         1 <0>         0.1361 
     40 H7         11.0873   14.3644    4.9357 H         1 <0>         0.1500 
     41 H8          8.8336   14.5844    5.6798 H         1 <0>         0.1424 
     42 H9          6.8662   13.8152    6.5669 H         1 <0>         0.0400 
     43 H10         6.6690   15.2404    5.5187 H         1 <0>         0.0400 
     44 H11         4.2685   12.7939    4.5507 H         1 <0>         0.1317 
     45 H12         1.8890   12.8695    5.0967 H         1 <0>         0.1326 
     46 H13         1.0489   14.3581    6.8744 H         1 <0>         0.1323 
     47 H14         6.3319   15.9356    7.6611 H         1 <0>         0.1367 
     48 H15         5.4520   17.3973    9.4107 H         1 <0>         0.1313 
     49 H16         3.0448   17.4641    9.8987 H         1 <0>         0.1300 
     50 H17         1.4700   16.0460    8.6303 H         1 <0>         0.1316 
     51 H18        12.2301   12.2215    2.0233 H         1 <0>         0.0638 
     52 H19        14.4237   12.6302    2.3281 H         1 <0>         0.3530 
     53 H20        19.2704   14.0233    2.9086 H         1 <0>         0.2120 
     54 H21        20.6688   15.5773    4.2542 H         1 <0>         0.1270 
     55 H22        19.6496   17.0256    5.9459 H         1 <0>         0.1660 
     56 H23        17.1981   16.9706    6.3806 H         1 <0>         0.1995 
@<TRIPOS>BOND
     1    1    2 1    
     2    1   34 1    
     3    1   35 1    
     4    1   36 1    
     5    2    3 1    
     6    2   37 1    
     7    2   38 1    
     8    3    4 1    
     9    4    9 ar   
    10    4    5 ar   
    11    5    6 ar   
    12    5   39 1    
    13    6    7 ar   
    14    6   22 1    
    15    7    8 ar   
    16    7   40 1    
    17    8    9 ar   
    18    8   41 1    
    19    9   10 1    
    20   10   11 1    
    21   11   12 1    
    22   11   42 1    
    23   11   43 1    
    24   12   17 ar   
    25   12   13 ar   
    26   13   14 ar   
    27   13   44 1    
    28   14   15 ar   
    29   14   45 1    
    30   15   16 ar   
    31   15   46 1    
    32   16   21 ar   
    33   16   17 ar   
    34   17   18 ar   
    35   18   19 ar   
    36   18   47 1    
    37   19   20 ar   
    38   19   48 1    
    39   20   21 ar   
    40   20   49 1    
    41   21   50 1    
    42   22   23 2    
    43   22   51 1    
    44   23   24 1    
    45   24   25 1    
    46   24   52 1    
    47   25   33 1    
    48   25   26 2    
    49   26   27 1    
    50   27   32 ar   
    51   27   28 ar   
    52   28   29 ar   
    53   28   53 1    
    54   29   30 ar   
    55   29   54 1    
    56   30   31 ar   
    57   30   55 1    
    58   31   32 ar   
    59   31   56 1    
    60   32   33 1    
@<TRIPOS>SUBSTRUCTURE
     1 <0>         1 GROUP             0       ****    0 ROOT    
@<TRIPOS>MOLECULE
ZINC02444632
55   57    1
SMALL
USER_CHARGES


@<TRIPOS>ATOM
      1 C1          4.7935   11.2405   -3.0006 C.3       1 <0>        -0.1664 
      2 C2          4.7161   12.3437   -1.9160 C.3       1 <0>         0.0082 
      3 C3          3.3852   12.1394   -1.1476 C.3       1 <0>        -0.1664 
      4 C4          4.6516   13.7300   -2.6034 C.3       1 <0>        -0.1664 
      5 C5          5.9686   12.2762   -1.0054 C.ar      1 <0>        -0.0464 
      6 C6          7.2403   12.3924   -1.5834 C.ar      1 <0>        -0.1309 
      7 C7          8.3864   12.3499   -0.7996 C.ar      1 <0>        -0.0965 
      8 C8          8.2873   12.2059    0.5862 C.ar      1 <0>        -0.0398 
      9 C9          7.0292   12.0638    1.1724 C.ar      1 <0>        -0.0965 
     10 C10         5.8809   12.1021    0.3856 C.ar      1 <0>        -0.1309 
     11 C11         9.5440   12.1974    1.3919 C.ar      1 <0>         0.0037 
     12 N1         10.6118   11.5333    1.0298 N.2       1 <0>        -0.1735 
     13 N2         11.6206   11.8320    1.9302 N.2       1 <0>        -0.1558 
     14 C12        11.1356   12.6786    2.8008 C.ar      1 <0>         0.0185 
     15 N3          9.7973   12.9073    2.5517 N.pl3     1 <0>         0.1016 
     16 C13         8.9058   13.7784    3.3105 C.3       1 <0>        -0.0295 
     17 C14         8.4008   13.1245    4.5857 C.2       1 <0>        -0.2114 
     18 C15         8.6569   13.5604    5.8297 C.2       1 <0>        -0.1977 
     19 S1         12.0763   13.4550    4.0749 S.3       1 <0>        -0.2055 
     20 C16        13.7693   13.2857    3.4026 C.3       1 <0>        -0.0609 
     21 C17        14.6708   14.4728    3.7465 C.2       1 <0>         0.4786 
     22 O1         14.1724   15.5536    4.0641 O.2       1 <0>        -0.5007 
     23 N4         15.9994   14.2471    3.6645 N.am      1 <0>        -0.3810 
     24 C18        17.0375   15.0509    4.1703 C.ar      1 <0>         0.0376 
     25 C19        18.3238   14.8550    3.6559 C.ar      1 <0>        -0.1075 
     26 C20        19.3976   15.6105    4.1317 C.ar      1 <0>        -0.1396 
     27 C21        19.1924   16.5643    5.1295 C.ar      1 <0>         0.1466 
     28 C22        17.9149   16.7450    5.6623 C.ar      1 <0>         0.1461 
     29 C23        16.8506   15.9765    5.2089 C.ar      1 <0>        -0.1365 
     30 F1         17.6787   17.6908    6.5937 F         1 <0>        -0.1644 
     31 F2         20.2287   17.3124    5.5734 F         1 <0>        -0.1653 
     32 H1          4.8577   10.2476   -2.5525 H         1 <0>         0.0630 
     33 H2          3.9160   11.2518   -3.6477 H         1 <0>         0.0630 
     34 H3          5.6602   11.3580   -3.6505 H         1 <0>         0.0630 
     35 H4          3.2289   12.9132   -0.3950 H         1 <0>         0.0630 
     36 H5          2.5252   12.1768   -1.8185 H         1 <0>         0.0630 
     37 H6          3.3531   11.1710   -0.6458 H         1 <0>         0.0630 
     38 H7          5.5310   13.9270   -3.2168 H         1 <0>         0.0630 
     39 H8          3.7850   13.8149   -3.2598 H         1 <0>         0.0630 
     40 H9          4.5832   14.5365   -1.8705 H         1 <0>         0.0630 
     41 H10         7.3564   12.5284   -2.6488 H         1 <0>         0.1361 
     42 H11         9.3520   12.4521   -1.2785 H         1 <0>         0.1400 
     43 H12         6.9341   11.9067    2.2361 H         1 <0>         0.1400 
     44 H13         4.9302   11.9921    0.8821 H         1 <0>         0.1361 
     45 H14         9.4468   14.6977    3.5305 H         1 <0>         0.1057 
     46 H15         8.0583   14.0621    2.6881 H         1 <0>         0.1057 
     47 H16         7.7892   12.2404    4.4598 H         1 <0>         0.1377 
     48 H17         9.2703   14.4322    6.0058 H         1 <0>         0.1244 
     49 H18         8.2555   13.0466    6.6931 H         1 <0>         0.1244 
     50 H19        14.1941   12.3601    3.7923 H         1 <0>         0.1190 
     51 H20        13.7528   13.1996    2.3185 H         1 <0>         0.1190 
     52 H21        16.2954   13.4003    3.2047 H         1 <0>         0.3042 
     53 H22        18.5035   14.1293    2.8750 H         1 <0>         0.1518 
     54 H23        20.3862   15.4607    3.7193 H         1 <0>         0.1575 
     55 H24        15.8842   16.1351    5.6636 H         1 <0>         0.1600 
@<TRIPOS>BOND
     1    1    2 1    
     2    1   32 1    
     3    1   33 1    
     4    1   34 1    
     5    2    3 1    
     6    2    4 1    
     7    2    5 1    
     8    3   35 1    
     9    3   36 1    
    10    3   37 1    
    11    4   38 1    
    12    4   39 1    
    13    4   40 1    
    14    5   10 ar   
    15    5    6 ar   
    16    6    7 ar   
    17    6   41 1    
    18    7    8 ar   
    19    7   42 1    
    20    8    9 ar   
    21    8   11 1    
    22    9   10 ar   
    23    9   43 1    
    24   10   44 1    
    25   11   15 ar   
    26   11   12 ar   
    27   12   13 ar   
    28   13   14 ar   
    29   14   15 ar   
    30   14   19 1    
    31   15   16 1    
    32   16   17 1    
    33   16   45 1    
    34   16   46 1    
    35   17   18 2    
    36   17   47 1    
    37   18   48 1    
    38   18   49 1    
    39   19   20 1    
    40   20   21 1    
    41   20   50 1    
    42   20   51 1    
    43   21   22 2    
    44   21   23 am   BACKBONE|DICT|INTERRES
    45   23   24 1    
    46   23   52 1    
    47   24   29 ar   
    48   24   25 ar   
    49   25   26 ar   
    50   25   53 1    
    51   26   27 ar   
    52   26   54 1    
    53   27   28 ar   
    54   27   31 1    
    55   28   29 ar   
    56   28   30 1    
    57   29   55 1    
@<TRIPOS>SUBSTRUCTURE
     1 <0>         1 GROUP             0       ****    0 ROOT    
@<TRIPOS>MOLECULE
ZINC08918587
64   68    1
SMALL
USER_CHARGES


@<TRIPOS>ATOM
      1 C1          6.6179   16.3916    1.1666 C.3       1 <0>        -0.2189 
      2 C2          6.4291   15.1285    0.3227 C.3       1 <0>         0.1951 
      3 O1          7.5079   14.2454    0.6065 O.3       1 <0>        -0.3540 
      4 C3          7.6193   13.0429   -0.0744 C.ar      1 <0>         0.1370 
      5 C4          6.7519   12.6434   -1.1056 C.ar      1 <0>        -0.1630 
      6 C5          6.9211   11.4215   -1.7643 C.ar      1 <0>        -0.0938 
      7 C6          7.9642   10.5792   -1.3633 C.ar      1 <0>        -0.1135 
      8 C7          8.8304   10.9599   -0.3432 C.ar      1 <0>        -0.1809 
      9 C8          8.6751   12.1980    0.2960 C.ar      1 <0>         0.1419 
     10 O2          9.5141   12.6536    1.2913 O.3       1 <0>        -0.3488 
     11 C9         10.6591   11.8983    1.6705 C.3       1 <0>         0.2084 
     12 C10        11.4109   12.6467    2.7596 C.ar      1 <0>        -0.0989 
     13 C11        12.7932   12.4848    2.8840 C.ar      1 <0>        -0.1020 
     14 C12        13.4751   13.1151    3.9213 C.ar      1 <0>        -0.1341 
     15 C13        12.7695   13.8973    4.8334 C.ar      1 <0>        -0.1187 
     16 C14        11.3914   14.0674    4.7082 C.ar      1 <0>        -0.1341 
     17 C15        10.7141   13.4523    3.6654 C.ar      1 <0>        -0.1020 
     18 C16         5.9973   11.0690   -2.8609 C.2       1 <0>        -0.0515 
     19 C17         5.8324    9.8456   -3.4086 C.2       1 <0>        -0.1956 
     20 C18         4.9085    9.4547   -4.5774 C.3       1 <0>         0.1909 
     21 C19         5.6873    9.0328   -5.8859 C.3       1 <0>         0.0039 
     22 C20         5.3960   10.2120   -6.7978 C.ar      1 <0>        -0.1563 
     23 C21         5.9188   10.5010   -8.0635 C.ar      1 <0>        -0.0709 
     24 C22         5.5209   11.6552   -8.7407 C.ar      1 <0>        -0.1742 
     25 C23         4.5974   12.5256   -8.1599 C.ar      1 <0>        -0.0859 
     26 C24         4.0633   12.2388   -6.9037 C.ar      1 <0>        -0.1710 
     27 C25         4.4602   11.0817   -6.2341 C.ar      1 <0>         0.3254 
     28 N1          4.0668   10.5616   -5.0053 N.pl3     1 <0>        -0.4998 
     29 C26         2.7923   10.4405   -4.3220 C.3       1 <0>        -0.0491 
     30 C27         2.7186    9.0042   -3.8261 C.2       1 <0>         0.5125 
     31 O3          1.7508    8.4455   -3.3182 O.2       1 <0>        -0.5040 
     32 N2          3.9305    8.4963   -4.0714 N.am      1 <0>        -0.4459 
     33 C28         7.2197    8.8547   -5.6964 C.3       1 <0>        -0.1586 
     34 C29         5.1464    7.7285   -6.5298 C.3       1 <0>        -0.1586 
     35 H1          7.5561   16.8894    0.9185 H         1 <0>         0.0747 
     36 H2          5.8088   17.1012    0.9961 H         1 <0>         0.0747 
     37 H3          6.6356   16.1519    2.2301 H         1 <0>         0.0747 
     38 H4          6.4167   15.4004   -0.7343 H         1 <0>         0.0315 
     39 H5          5.4766   14.6529    0.5638 H         1 <0>         0.0315 
     40 H6          5.9404   13.2847   -1.4132 H         1 <0>         0.1374 
     41 H7          8.1323    9.6287   -1.8459 H         1 <0>         0.1345 
     42 H8          9.6250   10.2821   -0.0686 H         1 <0>         0.1387 
     43 H9         10.3687   10.9191    2.0570 H         1 <0>         0.0382 
     44 H10        11.3126   11.7493    0.8104 H         1 <0>         0.0382 
     45 H11        13.3344   11.8534    2.1925 H         1 <0>         0.1334 
     46 H12        14.5422   12.9848    4.0269 H         1 <0>         0.1317 
     47 H13        13.2961   14.3749    5.6469 H         1 <0>         0.1301 
     48 H14        10.8318   14.6542    5.4192 H         1 <0>         0.1317 
     49 H15         9.6430   13.5711    3.5847 H         1 <0>         0.1334 
     50 H16         5.4220   11.8913   -3.2614 H         1 <0>         0.1222 
     51 H17         6.4002    9.0200   -3.0090 H         1 <0>         0.1444 
     52 H18         6.6356    9.8394   -8.5273 H         1 <0>         0.1301 
     53 H19         5.9282   11.8748   -9.7167 H         1 <0>         0.1326 
     54 H20         4.2914   13.4184   -8.6854 H         1 <0>         0.1335 
     55 H21         3.3427   12.9104   -6.4618 H         1 <0>         0.1358 
     56 H22         2.7353   11.1327   -3.4816 H         1 <0>         0.1052 
     57 H23         1.9774   10.6388   -5.0187 H         1 <0>         0.1052 
     58 H24         4.1888    7.5615   -3.8001 H         1 <0>         0.3212 
     59 H25         7.4448    8.0707   -4.9720 H         1 <0>         0.0674 
     60 H26         7.7117    8.5764   -6.6297 H         1 <0>         0.0674 
     61 H27         7.6983    9.7733   -5.3522 H         1 <0>         0.0674 
     62 H28         4.0789    7.7989   -6.7428 H         1 <0>         0.0674 
     63 H29         5.6459    7.5084   -7.4737 H         1 <0>         0.0674 
     64 H30         5.2953    6.8676   -5.8770 H         1 <0>         0.0674 
@<TRIPOS>BOND
     1    1    2 1    
     2    1   35 1    
     3    1   36 1    
     4    1   37 1    
     5    2    3 1    
     6    2   38 1    
     7    2   39 1    
     8    3    4 1    
     9    4    9 ar   
    10    4    5 ar   
    11    5    6 ar   
    12    5   40 1    
    13    6    7 ar   
    14    6   18 1    
    15    7    8 ar   
    16    7   41 1    
    17    8    9 ar   
    18    8   42 1    
    19    9   10 1    
    20   10   11 1    
    21   11   12 1    
    22   11   43 1    
    23   11   44 1    
    24   12   17 ar   
    25   12   13 ar   
    26   13   14 ar   
    27   13   45 1    
    28   14   15 ar   
    29   14   46 1    
    30   15   16 ar   
    31   15   47 1    
    32   16   17 ar   
    33   16   48 1    
    34   17   49 1    
    35   18   19 2    
    36   18   50 1    
    37   19   20 1    
    38   19   51 1    
    39   20   28 1    
    40   20   32 1    
    41   20   21 1    
    42   21   22 1    
    43   21   33 1    
    44   21   34 1    
    45   22   27 ar   
    46   22   23 ar   
    47   23   24 ar   
    48   23   52 1    
    49   24   25 ar   
    50   24   53 1    
    51   25   26 ar   
    52   25   54 1    
    53   26   27 ar   
    54   26   55 1    
    55   27   28 1    
    56   28   29 1    
    57   29   30 1    
    58   29   56 1    
    59   29   57 1    
    60   30   31 2    
    61   30   32 am   BACKBONE|DICT|INTERRES
    62   32   58 1    
    63   33   59 1    
    64   33   60 1    
    65   33   61 1    
    66   34   62 1    
    67   34   63 1    
    68   34   64 1    
@<TRIPOS>SUBSTRUCTURE
     1 <0>         1 GROUP             0       ****    0 ROOT    
@<TRIPOS>MOLECULE
ZINC03246990
52   55    1
SMALL
USER_CHARGES


@<TRIPOS>ATOM
      1 C1         13.7398   13.4217    3.5375 C.ar      1 <0>        -0.1484 
      2 C2         13.2300   12.6527    2.4940 C.ar      1 <0>        -0.1071 
      3 C3         11.8505   12.5154    2.3222 C.ar      1 <0>        -0.1240 
      4 C4         10.9656   13.1851    3.1786 C.ar      1 <0>         0.0209 
      5 C5         11.4895   13.9223    4.2444 C.ar      1 <0>        -0.1344 
      6 C6         12.8674   14.0458    4.4254 C.ar      1 <0>        -0.0912 
      7 C7         10.3917   14.3882    5.1409 C.3       1 <0>        -0.0943 
      8 C8          9.1363   14.0646    4.3578 C.3       1 <0>        -0.0240 
      9 N1          9.5542   13.1613    3.2808 N.am      1 <0>        -0.1768 
     10 C9          8.6018   12.7357    2.4034 C.2       1 <0>         0.4497 
     11 O1          7.4262   13.1130    2.5006 O.2       1 <0>        -0.4957 
     12 C10         8.9701   11.7684    1.2615 C.3       1 <0>         0.0882 
     13 O2          7.7770   11.1798    0.7323 O.3       1 <0>        -0.2998 
     14 C11         7.8108   10.2572   -0.2582 C.2       1 <0>         0.6352 
     15 O3          8.8473    9.9083   -0.8249 O.2       1 <0>        -0.4460 
     16 C12         6.4738    9.6064   -0.4841 C.ar      1 <0>        -0.3320 
     17 C13         5.3066   10.3551   -0.2492 C.ar      1 <0>        -0.0379 
     18 C14         4.0456    9.8079   -0.4758 C.ar      1 <0>        -0.1798 
     19 C15         3.9274    8.5035   -0.9459 C.ar      1 <0>        -0.0649 
     20 C16         5.0699    7.7435   -1.1754 C.ar      1 <0>        -0.1931 
     21 C17         6.3467    8.2687   -0.9326 C.ar      1 <0>         0.3094 
     22 N2          7.4827    7.4620   -1.1373 N.pl3     1 <0>        -0.7084 
     23 C18         7.7129    6.0923   -0.9555 C.ar      1 <0>         0.2673 
     24 C19         6.8328    5.2691   -0.2458 C.ar      1 <0>        -0.1698 
     25 C20         7.1486    3.9333   -0.0331 C.ar      1 <0>        -0.0691 
     26 C21         8.3566    3.4257   -0.5077 C.ar      1 <0>         0.0567 
     27 C22         9.2406    4.2363   -1.2148 C.ar      1 <0>        -0.0691 
     28 C23         8.9145    5.5710   -1.4379 C.ar      1 <0>        -0.1698 
     29 S1          8.7962    1.7514   -0.1784 S.3       1 <0>        -0.3064 
     30 C24         8.9204    1.6534    1.6307 C.3       1 <0>         0.2883 
     31 F1          9.7728    2.5612    2.1116 F         1 <0>        -0.1406 
     32 F2          7.7320    1.8193    2.2055 F         1 <0>        -0.1406 
     33 H1         14.8073   13.5092    3.6740 H         1 <0>         0.1336 
     34 H2         13.9008   12.1314    1.8253 H         1 <0>         0.1375 
     35 H3         11.5262   11.8846    1.5124 H         1 <0>         0.1582 
     36 H4         13.2719   14.5986    5.2604 H         1 <0>         0.1331 
     37 H5         10.4316   15.4471    5.3660 H         1 <0>         0.0913 
     38 H6         10.3969   13.8319    6.0794 H         1 <0>         0.0913 
     39 H7          8.2797   13.7431    4.9549 H         1 <0>         0.0823 
     40 H8          8.8236   14.9807    3.8539 H         1 <0>         0.0823 
     41 H9          9.5242   12.3021    0.4861 H         1 <0>         0.0662 
     42 H10         9.5842   10.9598    1.6687 H         1 <0>         0.0662 
     43 H11         5.3619   11.3775    0.1032 H         1 <0>         0.1559 
     44 H12         3.1587   10.3979   -0.2961 H         1 <0>         0.1406 
     45 H13         2.9508    8.0806   -1.1354 H         1 <0>         0.1374 
     46 H14         4.9537    6.7377   -1.5540 H         1 <0>         0.1465 
     47 H15         8.3351    8.0041   -1.2184 H         1 <0>         0.3347 
     48 H16         5.9225    5.6604    0.1819 H         1 <0>         0.1419 
     49 H17         6.4760    3.3047    0.5270 H         1 <0>         0.1404 
     50 H18        10.1851    3.8399   -1.5606 H         1 <0>         0.1404 
     51 H19         9.6163    6.2053   -1.9650 H         1 <0>         0.1419 
     52 H20         9.2879    0.6715    1.9272 H         1 <0>         0.0855 
@<TRIPOS>BOND
     1    1    6 ar   
     2    1    2 ar   
     3    1   33 1    
     4    2    3 ar   
     5    2   34 1    
     6    3    4 ar   
     7    3   35 1    
     8    4    9 1    
     9    4    5 ar   
    10    5    6 ar   
    11    5    7 1    
    12    6   36 1    
    13    7    8 1    
    14    7   37 1    
    15    7   38 1    
    16    8    9 1    
    17    8   39 1    
    18    8   40 1    
    19    9   10 am   BACKBONE|DICT|INTERRES
    20   10   11 2    
    21   10   12 1    
    22   12   13 1    
    23   12   41 1    
    24   12   42 1    
    25   13   14 1    
    26   14   15 2    
    27   14   16 1    
    28   16   21 ar   
    29   16   17 ar   
    30   17   18 ar   
    31   17   43 1    
    32   18   19 ar   
    33   18   44 1    
    34   19   20 ar   
    35   19   45 1    
    36   20   21 ar   
    37   20   46 1    
    38   21   22 1    
    39   22   23 1    
    40   22   47 1    
    41   23   28 ar   
    42   23   24 ar   
    43   24   25 ar   
    44   24   48 1    
    45   25   26 ar   
    46   25   49 1    
    47   26   27 ar   
    48   26   29 1    
    49   27   28 ar   
    50   27   50 1    
    51   28   51 1    
    52   29   30 1    
    53   30   31 1    
    54   30   32 1    
    55   30   52 1    
@<TRIPOS>SUBSTRUCTURE
     1 <0>         1 GROUP             0       ****    0 ROOT    
@<TRIPOS>MOLECULE
ZINC13590168
56   58    1
SMALL
USER_CHARGES


@<TRIPOS>ATOM
      1 C1          2.0538   18.3299   12.8650 C.3       1 <0>        -0.1654 
      2 C2          3.5087   17.9194   12.5320 C.3       1 <0>         0.0111 
      3 C3          4.0687   17.1529   13.7596 C.3       1 <0>        -0.1654 
      4 C4          4.3695   19.1942   12.3519 C.3       1 <0>        -0.1654 
      5 C5          3.5307   17.0860   11.2253 C.ar      1 <0>        -0.0595 
      6 C6          3.0663   17.6610   10.0333 C.ar      1 <0>        -0.1263 
      7 C7          3.0895   16.9484    8.8380 C.ar      1 <0>        -0.1087 
      8 C8          3.5777   15.6426    8.8058 C.ar      1 <0>        -0.0664 
      9 C9          4.0312   15.0534    9.9912 C.ar      1 <0>        -0.1087 
     10 C10         4.0105   15.7679   11.1849 C.ar      1 <0>        -0.1263 
     11 C11         3.6147   14.9120    7.4576 C.3       1 <0>        -0.0557 
     12 H1          2.7593   15.1793    6.8354 H         1 <0>         0.1149 
     13 C12         4.0219   13.4638    7.3357 C.3       1 <0>        -0.1951 
     14 C13         4.8664   14.5191    6.6483 C.3       1 <0>        -0.1735 
     15 H2          4.8141   14.6059    5.5626 H         1 <0>         0.1365 
     16 C14         6.2690   14.7716    7.2454 C.2       1 <0>         0.4146 
     17 O1          6.4316   15.4537    8.2609 O.2       1 <0>        -0.4782 
     18 N1          7.2837   14.2542    6.5260 N.am      1 <0>        -0.0378 
     19 N2          8.5745   14.4262    6.8645 N.2       1 <0>        -0.3214 
     20 C15         9.4929   14.1383    6.0233 C.2       1 <0>         0.0700 
     21 C16         9.4776   13.6822    4.6094 C.ar      1 <0>        -0.0494 
     22 C17        10.7220   13.4537    4.0002 C.ar      1 <0>        -0.1685 
     23 C18        10.8306   12.9077    2.7096 C.ar      1 <0>         0.1466 
     24 C19         9.6602   12.6376    1.9914 C.ar      1 <0>         0.1255 
     25 C20         8.4153   12.9349    2.5463 C.ar      1 <0>         0.0145 
     26 C21         8.3277   13.4461    3.8376 C.ar      1 <0>        -0.1303 
     27 Br1         6.8128   12.6237    1.5625 Br        1 <0>        -0.0906 
     28 O2          9.7262   12.0782    0.7389 O.3       1 <0>        -0.3509 
     29 C22         9.7695   10.6558    0.7530 C.3       1 <0>         0.1346 
     30 O3         12.0313   12.5974    2.0974 O.3       1 <0>        -0.3499 
     31 C23        13.2460   12.6955    2.8309 C.3       1 <0>         0.1337 
     32 H3          1.4142   17.4550   12.9929 H         1 <0>         0.0612 
     33 H4          2.0007   18.9085   13.7884 H         1 <0>         0.0612 
     34 H5          1.6090   18.9451   12.0821 H         1 <0>         0.0612 
     35 H6          5.1076   16.8551   13.6102 H         1 <0>         0.0612 
     36 H7          4.0436   17.7668   14.6610 H         1 <0>         0.0612 
     37 H8          3.4890   16.2541   13.9736 H         1 <0>         0.0612 
     38 H9          3.9883   19.8425   11.5624 H         1 <0>         0.0612 
     39 H10         4.3981   19.7931   13.2633 H         1 <0>         0.0612 
     40 H11         5.4002   18.9439   12.0959 H         1 <0>         0.0612 
     41 H12         2.6906   18.6730   10.0231 H         1 <0>         0.1301 
     42 H13         2.7382   17.4203    7.9322 H         1 <0>         0.1323 
     43 H14         4.4302   14.0499   10.0038 H         1 <0>         0.1323 
     44 H15         4.3880   15.2705   12.0644 H         1 <0>         0.1301 
     45 H16         3.4104   12.8038    6.7201 H         1 <0>         0.1044 
     46 H17         4.4316   12.9191    8.1833 H         1 <0>         0.1044 
     47 H18         7.1135   13.7279    5.6852 H         1 <0>         0.2286 
     48 H19        10.5058   14.2513    6.3974 H         1 <0>         0.1217 
     49 H20        11.6252   13.6498    4.5589 H         1 <0>         0.1450 
     50 H21         7.3308   13.6289    4.1960 H         1 <0>         0.1527 
     51 H22        10.7238   10.2924    1.1388 H         1 <0>         0.0412 
     52 H23         8.9670   10.2257    1.3558 H         1 <0>         0.0412 
     53 H24         9.6516   10.2756   -0.2617 H         1 <0>         0.0412 
     54 H25        14.0685   12.3552    2.2015 H         1 <0>         0.0452 
     55 H26        13.4565   13.7256    3.1217 H         1 <0>         0.0452 
     56 H27        13.2313   12.0626    3.7198 H         1 <0>         0.0452 
@<TRIPOS>BOND
     1    1    2 1    
     2    1   32 1    
     3    1   33 1    
     4    1   34 1    
     5    2    3 1    
     6    2    4 1    
     7    2    5 1    
     8    3   35 1    
     9    3   36 1    
    10    3   37 1    
    11    4   38 1    
    12    4   39 1    
    13    4   40 1    
    14    5   10 ar   
    15    5    6 ar   
    16    6    7 ar   
    17    6   41 1    
    18    7    8 ar   
    19    7   42 1    
    20    8    9 ar   
    21    8   11 1    
    22    9   10 ar   
    23    9   43 1    
    24   10   44 1    
    25   11   12 1    
    26   11   14 1    
    27   11   13 1    
    28   13   14 1    
    29   13   45 1    
    30   13   46 1    
    31   14   15 1    
    32   14   16 1    
    33   16   17 2    
    34   16   18 am   BACKBONE|DICT|INTERRES
    35   18   19 1    
    36   18   47 1    
    37   19   20 2    
    38   20   21 1    
    39   20   48 1    
    40   21   26 ar   
    41   21   22 ar   
    42   22   23 ar   
    43   22   49 1    
    44   23   24 ar   
    45   23   30 1    
    46   24   25 ar   
    47   24   28 1    
    48   25   26 ar   
    49   25   27 1    
    50   26   50 1    
    51   28   29 1    
    52   29   51 1    
    53   29   52 1    
    54   29   53 1    
    55   30   31 1    
    56   31   54 1    
    57   31   55 1    
    58   31   56 1    
@<TRIPOS>SUBSTRUCTURE
     1 <0>         1 GROUP             0       ****    0 ROOT    
@<TRIPOS>MOLECULE
ZINC16448845
53   55    1
SMALL
USER_CHARGES


@<TRIPOS>ATOM
      1 C1          4.6381   15.2840    9.5960 C.3       1 <0>        -0.1700 
      2 C2          5.8500   15.5254    8.6851 C.3       1 <0>        -0.1768 
      3 C3          5.6577   14.9713    7.2668 C.3       1 <0>         0.1944 
      4 O1          6.8319   15.2523    6.5118 O.3       1 <0>        -0.3576 
      5 C4          6.9367   14.5226    5.3519 C.ar      1 <0>         0.1352 
      6 C5          6.4439   15.0375    4.1416 C.ar      1 <0>         0.1464 
      7 C6          6.5972   14.2769    2.9663 C.ar      1 <0>        -0.1654 
      8 C7          7.2378   13.0355    2.9991 C.ar      1 <0>        -0.0803 
      9 C8          7.6741   12.5236    4.2172 C.ar      1 <0>        -0.0862 
     10 C9          7.5769   13.2793    5.3742 C.ar      1 <0>         0.0144 
     11 Br1         8.4135   12.6125    6.9422 Br        1 <0>        -0.0944 
     12 C10         7.5275   12.2865    1.7683 C.2       1 <0>         0.0415 
     13 C11         8.7534   11.9058    1.3353 C.2       1 <0>        -0.0678 
     14 C12         8.8264   11.1053    0.1549 C.1       1 <0>         0.3456 
     15 N1          8.8314   10.4615   -0.8056 N.1       1 <0>        -0.4720 
     16 C13        10.0525   12.2530    1.9499 C.ar      1 <0>         0.1571 
     17 N2         11.2374   11.7152    1.4907 N.pl3     1 <0>        -0.3009 
     18 H1         11.2895   11.0283    0.7516 H         1 <0>         0.3115 
     19 C14        12.2754   12.3221    2.1662 C.ar      1 <0>         0.1653 
     20 C15        13.6678   12.2538    2.0806 C.ar      1 <0>        -0.3161 
     21 C16        14.4130   13.0661    2.9434 C.ar      1 <0>        -0.0605 
     22 C17        13.7776   13.9054    3.8813 C.ar      1 <0>        -0.1111 
     23 C18        12.3819   13.9476    3.9679 C.ar      1 <0>        -0.2464 
     24 C19        11.6281   13.1738    3.0786 C.ar      1 <0>         0.2239 
     25 N3         10.2734   13.1197    2.9149 N.2       1 <0>        -0.3505 
     26 C20        14.5545   14.8145    4.8249 C.3       1 <0>        -0.1203 
     27 C21        15.9284   13.0295    2.7972 C.3       1 <0>        -0.1264 
     28 O2          5.8651   16.2940    4.1775 O.3       1 <0>        -0.3567 
     29 C22         5.4083   16.8918    2.9701 C.3       1 <0>         0.1937 
     30 C23         4.8601   18.2825    3.2974 C.3       1 <0>        -0.2197 
     31 H2          4.4337   14.2177    9.7033 H         1 <0>         0.0614 
     32 H3          4.8156   15.6832   10.5952 H         1 <0>         0.0614 
     33 H4          3.7400   15.7594    9.2003 H         1 <0>         0.0614 
     34 H5          6.7263   15.0542    9.1315 H         1 <0>         0.0800 
     35 H6          6.0567   16.5950    8.6338 H         1 <0>         0.0800 
     36 H7          4.7947   15.4364    6.7862 H         1 <0>         0.0337 
     37 H8          5.4655   13.8961    7.3180 H         1 <0>         0.0337 
     38 H9          6.2606   14.6558    2.0136 H         1 <0>         0.1397 
     39 H10         8.1695   11.5635    4.2490 H         1 <0>         0.1530 
     40 H11         6.6601   11.9934    1.1934 H         1 <0>         0.1437 
     41 H12        14.1437   11.6053    1.3589 H         1 <0>         0.1961 
     42 H13        11.8910   14.5992    4.6751 H         1 <0>         0.1929 
     43 H14        14.2160   14.6563    5.8482 H         1 <0>         0.0684 
     44 H15        15.6303   14.6539    4.8161 H         1 <0>         0.0684 
     45 H16        14.3608   15.8587    4.5812 H         1 <0>         0.0684 
     46 H17        16.3898   12.5649    3.6660 H         1 <0>         0.0700 
     47 H18        16.2428   12.4806    1.9087 H         1 <0>         0.0700 
     48 H19        16.3271   14.0397    2.7012 H         1 <0>         0.0700 
     49 H20         6.2280   16.9833    2.2556 H         1 <0>         0.0348 
     50 H21         4.6250   16.2840    2.5148 H         1 <0>         0.0348 
     51 H22         5.6298   18.9082    3.7465 H         1 <0>         0.0761 
     52 H23         4.5038   18.7853    2.3984 H         1 <0>         0.0761 
     53 H24         4.0288   18.2192    3.9993 H         1 <0>         0.0761 
@<TRIPOS>BOND
     1    1    2 1    
     2    1   31 1    
     3    1   32 1    
     4    1   33 1    
     5    2    3 1    
     6    2   34 1    
     7    2   35 1    
     8    3    4 1    
     9    3   36 1    
    10    3   37 1    
    11    4    5 1    
    12    5   10 ar   
    13    5    6 ar   
    14    6    7 ar   
    15    6   28 1    
    16    7    8 ar   
    17    7   38 1    
    18    8    9 ar   
    19    8   12 1    
    20    9   10 ar   
    21    9   39 1    
    22   10   11 1    
    23   12   13 2    
    24   12   40 1    
    25   13   14 1    
    26   13   16 1    
    27   14   15 3    
    28   16   25 ar   
    29   16   17 ar   
    30   17   18 1    
    31   17   19 ar   
    32   19   24 ar   
    33   19   20 ar   
    34   20   21 ar   
    35   20   41 1    
    36   21   22 ar   
    37   21   27 1    
    38   22   23 ar   
    39   22   26 1    
    40   23   24 ar   
    41   23   42 1    
    42   24   25 ar   
    43   26   43 1    
    44   26   44 1    
    45   26   45 1    
    46   27   46 1    
    47   27   47 1    
    48   27   48 1    
    49   28   29 1    
    50   29   30 1    
    51   29   49 1    
    52   29   50 1    
    53   30   51 1    
    54   30   52 1    
    55   30   53 1    
@<TRIPOS>SUBSTRUCTURE
     1 <0>         1 GROUP             0       ****    0 ROOT    
@<TRIPOS>MOLECULE
ZINC16866212
58   60    1
SMALL
USER_CHARGES


@<TRIPOS>ATOM
      1 C1         16.2030   12.4785    3.1826 C.3       1 <0>        -0.1633 
      2 C2         15.6712   13.9227    3.3962 C.3       1 <0>        -0.0112 
      3 H1         15.5104   14.3539    2.4079 H         1 <0>         0.1523 
      4 C3         16.7505   14.8350    4.0560 C.2       1 <0>         0.4709 
      5 O1         16.5238   15.3799    5.1373 O.2       1 <0>        -0.5079 
      6 N1         17.9184   15.0104    3.3938 N.am      1 <0>        -0.3612 
      7 C4         19.0375   15.7386    3.8590 C.ar      1 <0>        -0.0460 
      8 C5         19.5796   16.7501    3.0478 C.ar      1 <0>         0.2096 
      9 C6         20.7075   17.4591    3.4618 C.ar      1 <0>        -0.1796 
     10 C7         21.3180   17.1637    4.6792 C.ar      1 <0>        -0.0742 
     11 C8         20.8035   16.1481    5.4816 C.ar      1 <0>        -0.1796 
     12 C9         19.6738   15.4354    5.0791 C.ar      1 <0>         0.2096 
     13 F1         19.2337   14.4328    5.8721 F         1 <0>        -0.1670 
     14 F2         19.0232   17.0618    1.8549 F         1 <0>        -0.1670 
     15 S1         14.0247   14.0200    4.2462 S.3       1 <0>        -0.2338 
     16 C10        12.8668   13.1424    3.2168 C.ar      1 <0>         0.0273 
     17 N2         13.1946   12.2813    2.2924 N.2       1 <0>        -0.1397 
     18 N3         12.0342   11.8554    1.6638 N.2       1 <0>        -0.1798 
     19 C11        11.0271   12.4516    2.2453 C.ar      1 <0>         0.0029 
     20 N4         11.4866   13.2804    3.2644 N.pl3     1 <0>         0.1098 
     21 C12        10.7354   14.0820    4.2431 C.3       1 <0>        -0.0290 
     22 C13         9.4095   14.6543    3.7712 C.2       1 <0>        -0.2107 
     23 C14         8.2452   14.5842    4.4378 C.2       1 <0>        -0.2011 
     24 C15         9.6194   12.2323    1.7888 C.ar      1 <0>        -0.0373 
     25 C16         8.6214   11.8500    2.6847 C.ar      1 <0>        -0.0961 
     26 C17         7.3101   11.6756    2.2494 C.ar      1 <0>        -0.1326 
     27 C18         6.9692   11.8687    0.9004 C.ar      1 <0>        -0.0489 
     28 C19         7.9880   12.2040   -0.0008 C.ar      1 <0>        -0.1326 
     29 C20         9.2982   12.3764    0.4332 C.ar      1 <0>        -0.0961 
     30 C21         5.5164   11.7208    0.3871 C.3       1 <0>         0.0088 
     31 C22         5.4381   10.5475   -0.6212 C.3       1 <0>        -0.1661 
     32 C23         4.4903   11.4393    1.5232 C.3       1 <0>        -0.1661 
     33 C24         5.0712   13.0283   -0.3155 C.3       1 <0>        -0.1661 
     34 H2         16.0466   11.8514    4.0618 H         1 <0>         0.0787 
     35 H3         15.7061   11.9859    2.3489 H         1 <0>         0.0787 
     36 H4         17.2702   12.4415    2.9472 H         1 <0>         0.0787 
     37 H5         17.9971   14.6419    2.4592 H         1 <0>         0.3004 
     38 H6         21.1153   18.2357    2.8308 H         1 <0>         0.1540 
     39 H7         22.1974   17.7080    4.9918 H         1 <0>         0.1471 
     40 H8         21.2913   15.8968    6.4127 H         1 <0>         0.1540 
     41 H9         10.6092   13.4870    5.1468 H         1 <0>         0.1057 
     42 H10        11.3512   14.9392    4.5111 H         1 <0>         0.1057 
     43 H11         9.4316   15.1737    2.8289 H         1 <0>         0.1354 
     44 H12         7.3471   15.0317    4.0344 H         1 <0>         0.1234 
     45 H13         8.1697   14.0790    5.3895 H         1 <0>         0.1234 
     46 H14         8.8541   11.6876    3.7238 H         1 <0>         0.1424 
     47 H15         6.5749   11.3884    2.9869 H         1 <0>         0.1349 
     48 H16         7.7709   12.3405   -1.0471 H         1 <0>         0.1349 
     49 H17        10.0499   12.6423   -0.2963 H         1 <0>         0.1424 
     50 H18         5.7671    9.6043   -0.1795 H         1 <0>         0.0624 
     51 H19         4.4209   10.3919   -0.9813 H         1 <0>         0.0624 
     52 H20         6.0558   10.7295   -1.4999 H         1 <0>         0.0624 
     53 H21         4.5043   12.2194    2.2881 H         1 <0>         0.0624 
     54 H22         3.4731   11.3949    1.1402 H         1 <0>         0.0624 
     55 H23         4.6814   10.4829    2.0130 H         1 <0>         0.0624 
     56 H24         5.6759   13.2644   -1.1932 H         1 <0>         0.0624 
     57 H25         4.0375   12.9633   -0.6559 H         1 <0>         0.0624 
     58 H26         5.1391   13.8735    0.3659 H         1 <0>         0.0624 
@<TRIPOS>BOND
     1    1    2 1    
     2    1   34 1    
     3    1   35 1    
     4    1   36 1    
     5    2    3 1    
     6    2    4 1    
     7    2   15 1    
     8    4    5 2    
     9    4    6 am   BACKBONE|DICT|INTERRES
    10    6    7 1    
    11    6   37 1    
    12    7   12 ar   
    13    7    8 ar   
    14    8    9 ar   
    15    8   14 1    
    16    9   10 ar   
    17    9   38 1    
    18   10   11 ar   
    19   10   39 1    
    20   11   12 ar   
    21   11   40 1    
    22   12   13 1    
    23   15   16 1    
    24   16   20 ar   
    25   16   17 ar   
    26   17   18 ar   
    27   18   19 ar   
    28   19   20 ar   
    29   19   24 1    
    30   20   21 1    
    31   21   22 1    
    32   21   41 1    
    33   21   42 1    
    34   22   23 2    
    35   22   43 1    
    36   23   44 1    
    37   23   45 1    
    38   24   29 ar   
    39   24   25 ar   
    40   25   26 ar   
    41   25   46 1    
    42   26   27 ar   
    43   26   47 1    
    44   27   28 ar   
    45   27   30 1    
    46   28   29 ar   
    47   28   48 1    
    48   29   49 1    
    49   30   31 1    
    50   30   32 1    
    51   30   33 1    
    52   31   50 1    
    53   31   51 1    
    54   31   52 1    
    55   32   53 1    
    56   32   54 1    
    57   32   55 1    
    58   33   56 1    
    59   33   57 1    
    60   33   58 1    
@<TRIPOS>SUBSTRUCTURE
     1 <0>         1 GROUP             0       ****    0 ROOT    
@<TRIPOS>MOLECULE
ZINC02066359
60   62    1
SMALL
USER_CHARGES


@<TRIPOS>ATOM
      1 C1         14.1759   12.0801    4.1228 C.3       1 <0>        -0.1708 
      2 C2         13.4511   12.4229    2.8153 C.3       1 <0>        -0.1274 
      3 C3         11.9432   12.1238    2.8954 C.3       1 <0>        -0.2018 
      4 C4         11.1687   12.5720    1.6662 C.3       1 <0>         0.1521 
      5 O1          9.8115   12.1457    1.7453 O.3       1 <0>        -0.3089 
      6 C5          8.9521   12.3953    0.7329 C.2       1 <0>         0.4713 
      7 O2          9.2312   12.9907   -0.3060 O.2       1 <0>        -0.4504 
      8 C6          7.5908   11.9664    1.0146 C.2       1 <0>        -0.2159 
      9 C7          7.2329   10.6584    1.0177 C.2       1 <0>         0.0929 
     10 N1          5.9001   10.3290    1.1473 N.pl3     1 <0>        -0.2618 
     11 C8          4.8747   11.2499    1.1175 C.2       1 <0>         0.0968 
     12 C9          5.1615   12.5842    1.0810 C.2       1 <0>        -0.2534 
     13 C10         6.5962   13.0890    1.3823 C.3       1 <0>         0.0971 
     14 H1          6.8321   14.0137    0.8486 H         1 <0>         0.1036 
     15 C11         6.7074   13.4780    2.8709 C.ar      1 <0>        -0.0854 
     16 C12         6.5468   14.8083    3.2709 C.ar      1 <0>        -0.0809 
     17 C13         6.6054   15.1563    4.6231 C.ar      1 <0>        -0.1541 
     18 C14         6.8284   14.1762    5.6051 C.ar      1 <0>         0.1476 
     19 C15         6.9922   12.8493    5.2002 C.ar      1 <0>        -0.0086 
     20 C16         6.9380   12.5085    3.8533 C.ar      1 <0>        -0.0724 
     21 Br1         7.2472   11.4497    6.4646 Br        1 <0>        -0.1201 
     22 O3          6.8745   14.4377    6.9604 O.3       1 <0>        -0.3649 
     23 C17         6.4523   15.7041    7.4554 C.3       1 <0>         0.1373 
     24 C18         4.1103   13.5887    0.8185 C.2       1 <0>         0.4487 
     25 O4          4.3084   14.7957    0.9320 O.2       1 <0>        -0.4607 
     26 C19         2.6979   13.0475    0.5263 C.3       1 <0>        -0.1926 
     27 C20         2.6742   11.6158   -0.0805 C.3       1 <0>        -0.0272 
     28 C21         3.4793   10.6795    0.8657 C.3       1 <0>        -0.1193 
     29 C22         3.2923   11.6304   -1.5064 C.3       1 <0>        -0.1699 
     30 C23         1.2113   11.1358   -0.0959 C.3       1 <0>        -0.1699 
     31 C24         8.1516    9.4704    0.8094 C.3       1 <0>        -0.1671 
     32 H2         15.2479   12.2590    4.0482 H         1 <0>         0.0609 
     33 H3         14.0307   11.0346    4.3939 H         1 <0>         0.0609 
     34 H4         13.8006   12.6861    4.9477 H         1 <0>         0.0609 
     35 H5         13.6146   13.4776    2.5852 H         1 <0>         0.0661 
     36 H6         13.8919   11.8564    1.9917 H         1 <0>         0.0661 
     37 H7         11.8000   11.0525    3.0452 H         1 <0>         0.0765 
     38 H8         11.5192   12.6531    3.7514 H         1 <0>         0.0765 
     39 H9         11.2312   13.6589    1.6619 H         1 <0>         0.0586 
     40 H10        11.6308   12.1785    0.7610 H         1 <0>         0.0586 
     41 H11         5.6704    9.3636    1.3410 H         1 <0>         0.2653 
     42 H12         6.3542   15.5762    2.5348 H         1 <0>         0.1417 
     43 H13         6.4609   16.1884    4.8968 H         1 <0>         0.1435 
     44 H14         7.0506   11.4682    3.5898 H         1 <0>         0.1491 
     45 H15         6.3310   15.6352    8.5356 H         1 <0>         0.0381 
     46 H16         5.4944   16.0168    7.0399 H         1 <0>         0.0381 
     47 H17         7.1993   16.4751    7.2627 H         1 <0>         0.0381 
     48 H18         2.1996   13.0186    1.4963 H         1 <0>         0.0992 
     49 H19         2.1585   13.7742   -0.0812 H         1 <0>         0.0992 
     50 H20         3.5414    9.7180    0.3508 H         1 <0>         0.0878 
     51 H21         3.0006   10.5403    1.8356 H         1 <0>         0.0878 
     52 H22         3.2665   10.6375   -1.9576 H         1 <0>         0.0667 
     53 H23         4.3313   11.9555   -1.5199 H         1 <0>         0.0667 
     54 H24         2.7392   12.3007   -2.1676 H         1 <0>         0.0667 
     55 H25         1.1324   10.1229   -0.4924 H         1 <0>         0.0667 
     56 H26         0.5989   11.7792   -0.7282 H         1 <0>         0.0667 
     57 H27         0.7704   11.1345    0.9010 H         1 <0>         0.0667 
     58 H28         7.6210    8.5185    0.7429 H         1 <0>         0.0875 
     59 H29         8.8320    9.4288    1.6606 H         1 <0>         0.0875 
     60 H30         8.7558    9.5970   -0.0940 H         1 <0>         0.0875 
@<TRIPOS>BOND
     1    1    2 1    
     2    1   32 1    
     3    1   33 1    
     4    1   34 1    
     5    2    3 1    
     6    2   35 1    
     7    2   36 1    
     8    3    4 1    
     9    3   37 1    
    10    3   38 1    
    11    4    5 1    
    12    4   39 1    
    13    4   40 1    
    14    5    6 1    
    15    6    7 2    
    16    6    8 1    
    17    8   13 1    
    18    8    9 2    
    19    9   10 1    
    20    9   31 1    
    21   10   11 1    
    22   10   41 1    
    23   11   28 1    
    24   11   12 2    
    25   12   13 1    
    26   12   24 1    
    27   13   14 1    
    28   13   15 1    
    29   15   20 ar   
    30   15   16 ar   
    31   16   17 ar   
    32   16   42 1    
    33   17   18 ar   
    34   17   43 1    
    35   18   19 ar   
    36   18   22 1    
    37   19   20 ar   
    38   19   21 1    
    39   20   44 1    
    40   22   23 1    
    41   23   45 1    
    42   23   46 1    
    43   23   47 1    
    44   24   25 2    
    45   24   26 1    
    46   26   27 1    
    47   26   48 1    
    48   26   49 1    
    49   27   28 1    
    50   27   29 1    
    51   27   30 1    
    52   28   50 1    
    53   28   51 1    
    54   29   52 1    
    55   29   53 1    
    56   29   54 1    
    57   30   55 1    
    58   30   56 1    
    59   30   57 1    
    60   31   58 1    
    61   31   59 1    
    62   31   60 1    
@<TRIPOS>SUBSTRUCTURE
     1 <0>         1 GROUP             0       ****    0 ROOT    
@<TRIPOS>MOLECULE
ZINC00823439
67   70    1
SMALL
USER_CHARGES


@<TRIPOS>ATOM
      1 C1          2.8030   14.7061    2.6002 C.3       1 <0>        -0.1653 
      2 C2          3.7413   13.7893    3.3864 C.2       1 <0>         0.0830 
      3 C3          4.6934   14.1092    4.3137 C.2       1 <0>        -0.2074 
      4 C4          5.5096   13.0015    5.0492 C.3       1 <0>         0.0995 
      5 H1          5.3145   13.0957    6.1207 H         1 <0>         0.1006 
      6 C5          5.0431   11.5729    4.6419 C.2       1 <0>        -0.2499 
      7 C6          4.0618   11.3927    3.7134 C.2       1 <0>         0.0928 
      8 N1          3.4687   12.4706    3.1049 N.pl3     1 <0>        -0.2623 
      9 C7          3.6410   10.0240    3.1674 C.3       1 <0>        -0.1186 
     10 C8          4.7939    8.9886    3.2988 C.3       1 <0>        -0.0272 
     11 C9          5.2589    9.0167    4.7783 C.3       1 <0>        -0.1930 
     12 C10         5.6753   10.4027    5.2973 C.2       1 <0>         0.4492 
     13 O1          6.3746   10.4984    6.3041 O.2       1 <0>        -0.4612 
     14 C11         5.9824    9.3415    2.3586 C.3       1 <0>        -0.1695 
     15 C12         4.2310    7.5837    2.9956 C.3       1 <0>        -0.1695 
     16 C13         7.0337   13.1912    4.9610 C.ar      1 <0>        -0.1141 
     17 C14         7.6637   13.0723    3.7222 C.ar      1 <0>        -0.0724 
     18 C15         9.0398   13.2316    3.6240 C.ar      1 <0>        -0.1837 
     19 C16         9.8062   13.5161    4.7685 C.ar      1 <0>         0.1586 
     20 C17         9.1706   13.6292    6.0031 C.ar      1 <0>        -0.1837 
     21 C18         7.7941   13.4615    6.1019 C.ar      1 <0>        -0.0724 
     22 O2         11.1785   13.6751    4.7662 O.3       1 <0>        -0.3677 
     23 C19        11.8681   13.4582    3.5377 C.3       1 <0>         0.2096 
     24 C20        13.3584   13.6915    3.6782 C.ar      1 <0>        -0.0997 
     25 C21        13.8235   14.8122    4.3605 C.ar      1 <0>        -0.1036 
     26 C22        15.1823   15.0918    4.3697 C.ar      1 <0>        -0.1345 
     27 C23        16.0644   14.2781    3.6649 C.ar      1 <0>        -0.1202 
     28 C24        15.6110   13.1432    3.0108 C.ar      1 <0>        -0.1345 
     29 C25        14.2569   12.8346    3.0408 C.ar      1 <0>        -0.1036 
     30 C26         5.0939   15.5079    4.6323 C.2       1 <0>         0.4752 
     31 O3          5.6001   15.8320    5.7059 O.2       1 <0>        -0.4505 
     32 O4          4.9590   16.3754    3.6020 O.3       1 <0>        -0.3143 
     33 C27         5.2376   17.7710    3.7366 C.3       1 <0>         0.2091 
     34 C28         3.9305   18.5224    4.0603 C.3       1 <0>        -0.2295 
     35 C29         5.8572   18.2415    2.4087 C.3       1 <0>        -0.2295 
     36 H2          2.8095   15.7498    2.9041 H         1 <0>         0.0857 
     37 H3          1.7742   14.3735    2.7361 H         1 <0>         0.0857 
     38 H4          3.0328   14.6587    1.5353 H         1 <0>         0.0857 
     39 H5          2.6048   12.2825    2.6212 H         1 <0>         0.2636 
     40 H6          2.7152    9.7215    3.6726 H         1 <0>         0.0865 
     41 H7          3.4382   10.1016    2.0948 H         1 <0>         0.0865 
     42 H8          4.4297    8.7062    5.4162 H         1 <0>         0.0975 
     43 H9          6.0774    8.3293    4.9577 H         1 <0>         0.0975 
     44 H10         6.7886    8.6130    2.4605 H         1 <0>         0.0663 
     45 H11         6.4180   10.3243    2.5631 H         1 <0>         0.0663 
     46 H12         5.6728    9.3287    1.3108 H         1 <0>         0.0663 
     47 H13         4.9832    6.8134    3.1715 H         1 <0>         0.0663 
     48 H14         3.9226    7.5076    1.9467 H         1 <0>         0.0663 
     49 H15         3.3620    7.3430    3.6157 H         1 <0>         0.0663 
     50 H16         7.0850   12.8520    2.8350 H         1 <0>         0.1362 
     51 H17         9.4874   13.1138    2.6486 H         1 <0>         0.1358 
     52 H18         9.7512   13.8324    6.8915 H         1 <0>         0.1358 
     53 H19         7.3179   13.5289    7.0640 H         1 <0>         0.1362 
     54 H20        11.6726   12.4458    3.1689 H         1 <0>         0.0401 
     55 H21        11.5048   14.1666    2.7967 H         1 <0>         0.0401 
     56 H22        13.1304   15.4758    4.8502 H         1 <0>         0.1340 
     57 H23        15.5455   15.9637    4.8878 H         1 <0>         0.1312 
     58 H24        17.1150   14.5207    3.6510 H         1 <0>         0.1294 
     59 H25        16.3036   12.5071    2.4816 H         1 <0>         0.1312 
     60 H26        13.8988   11.9650    2.5080 H         1 <0>         0.1340 
     61 H27         5.9665   17.9509    4.5355 H         1 <0>         0.0562 
     62 H28         4.1145   19.5878    4.1676 H         1 <0>         0.0723 
     63 H29         3.4889   18.1697    4.9912 H         1 <0>         0.0723 
     64 H30         3.1901   18.3915    3.2698 H         1 <0>         0.0723 
     65 H31         6.0573   19.3137    2.4233 H         1 <0>         0.0723 
     66 H32         5.2069   18.0341    1.5522 H         1 <0>         0.0723 
     67 H33         6.8127   17.7408    2.2265 H         1 <0>         0.0723 
@<TRIPOS>BOND
     1    1    2 1    
     2    1   36 1    
     3    1   37 1    
     4    1   38 1    
     5    2    8 1    
     6    2    3 2    
     7    3    4 1    
     8    3   30 1    
     9    4    5 1    
    10    4    6 1    
    11    4   16 1    
    12    6   12 1    
    13    6    7 2    
    14    7    8 1    
    15    7    9 1    
    16    8   39 1    
    17    9   10 1    
    18    9   40 1    
    19    9   41 1    
    20   10   11 1    
    21   10   14 1    
    22   10   15 1    
    23   11   12 1    
    24   11   42 1    
    25   11   43 1    
    26   12   13 2    
    27   14   44 1    
    28   14   45 1    
    29   14   46 1    
    30   15   47 1    
    31   15   48 1    
    32   15   49 1    
    33   16   21 ar   
    34   16   17 ar   
    35   17   18 ar   
    36   17   50 1    
    37   18   19 ar   
    38   18   51 1    
    39   19   20 ar   
    40   19   22 1    
    41   20   21 ar   
    42   20   52 1    
    43   21   53 1    
    44   22   23 1    
    45   23   24 1    
    46   23   54 1    
    47   23   55 1    
    48   24   29 ar   
    49   24   25 ar   
    50   25   26 ar   
    51   25   56 1    
    52   26   27 ar   
    53   26   57 1    
    54   27   28 ar   
    55   27   58 1    
    56   28   29 ar   
    57   28   59 1    
    58   29   60 1    
    59   30   31 2    
    60   30   32 1    
    61   32   33 1    
    62   33   34 1    
    63   33   35 1    
    64   33   61 1    
    65   34   62 1    
    66   34   63 1    
    67   34   64 1    
    68   35   65 1    
    69   35   66 1    
    70   35   67 1    
@<TRIPOS>SUBSTRUCTURE
     1 <0>         1 GROUP             0       ****    0 ROOT    
@<TRIPOS>MOLECULE
ZINC01107190
68   71    1
SMALL
USER_CHARGES


@<TRIPOS>ATOM
      1 C1          8.1435    9.6837    1.1641 C.3       1 <0>        -0.1655 
      2 C2          7.3475   10.9772    1.1845 C.2       1 <0>         0.0841 
      3 C3          7.8500   12.2354    1.2220 C.2       1 <0>        -0.2079 
      4 C4          6.9436   13.4827    1.2847 C.3       1 <0>         0.1008 
      5 H1          7.3813   14.3194    0.7336 H         1 <0>         0.0999 
      6 C5          5.5406   13.1130    0.7333 C.2       1 <0>        -0.2470 
      7 C6          5.1208   11.8141    0.7047 C.2       1 <0>         0.0895 
      8 N1          5.9878   10.7981    1.0539 N.pl3     1 <0>        -0.2625 
      9 C7          3.6876   11.3928    0.3722 C.3       1 <0>        -0.1182 
     10 C8          2.6838   12.5500    0.6546 C.3       1 <0>        -0.0272 
     11 C9          3.2095   13.8217   -0.0709 C.3       1 <0>        -0.1932 
     12 C10         4.6513   14.2104    0.3048 C.2       1 <0>         0.4488 
     13 O1          5.0649   15.3524    0.1017 O.2       1 <0>        -0.4594 
     14 C11         1.3302   12.1789    0.0156 C.3       1 <0>        -0.1694 
     15 C12         2.5612   12.8108    2.1823 C.3       1 <0>        -0.1694 
     16 C13         6.7701   14.0209    2.7146 C.ar      1 <0>        -0.1269 
     17 C14         6.6063   13.1477    3.7953 C.ar      1 <0>        -0.0680 
     18 C15         6.3276   13.6409    5.0644 C.ar      1 <0>        -0.1920 
     19 C16         6.1928   15.0178    5.2903 C.ar      1 <0>         0.3139 
     20 C17         6.4081   15.8893    4.2100 C.ar      1 <0>        -0.1920 
     21 C18         6.6944   15.3995    2.9378 C.ar      1 <0>        -0.0680 
     22 N2          5.8228   15.5076    6.5701 N.pl3     1 <0>        -0.7587 
     23 C19         5.4997   16.9114    6.7877 C.3       1 <0>         0.0911 
     24 C20         5.9236   14.6546    7.7476 C.3       1 <0>         0.0911 
     25 C21         9.2522   12.4713    0.9269 C.2       1 <0>         0.4733 
     26 O2          9.6316   12.6534   -0.2268 O.2       1 <0>        -0.4515 
     27 O3         10.0478   12.4828    2.0198 O.3       1 <0>        -0.3094 
     28 C22        11.4349   12.7902    1.8929 C.3       1 <0>         0.1560 
     29 C23        12.1680   12.4677    3.1985 C.3       1 <0>        -0.1542 
     30 C24        13.5072   13.1771    3.3246 C.ar      1 <0>        -0.0860 
     31 C25        14.6416   12.6535    2.6997 C.ar      1 <0>        -0.1221 
     32 C26        15.8640   13.3088    2.8268 C.ar      1 <0>        -0.1287 
     33 C27        15.9436   14.4910    3.5602 C.ar      1 <0>        -0.1291 
     34 C28        14.8167   15.0141    4.1893 C.ar      1 <0>        -0.1287 
     35 C29        13.5980   14.3545    4.0709 C.ar      1 <0>        -0.1221 
     36 H2          9.1047    9.8163    1.6605 H         1 <0>         0.0855 
     37 H3          8.3474    9.4073    0.1308 H         1 <0>         0.0855 
     38 H4          7.6260    8.8666    1.6694 H         1 <0>         0.0855 
     39 H5          5.6091    9.8781    1.2172 H         1 <0>         0.2630 
     40 H6          3.6793   11.0521   -0.6652 H         1 <0>         0.0859 
     41 H7          3.3811   10.5599    1.0051 H         1 <0>         0.0859 
     42 H8          3.2427   13.6197   -1.1418 H         1 <0>         0.0969 
     43 H9          2.5579   14.6837    0.0650 H         1 <0>         0.0969 
     44 H10         0.6087   12.9846    0.1433 H         1 <0>         0.0660 
     45 H11         0.9045   11.2847    0.4743 H         1 <0>         0.0660 
     46 H12         1.4177   11.9843   -1.0554 H         1 <0>         0.0660 
     47 H13         1.8833   13.6395    2.3857 H         1 <0>         0.0660 
     48 H14         3.5132   13.0525    2.6542 H         1 <0>         0.0660 
     49 H15         2.1629   11.9378    2.7010 H         1 <0>         0.0660 
     50 H16         6.6528   12.0782    3.6518 H         1 <0>         0.1326 
     51 H17         6.1731   12.9251    5.8591 H         1 <0>         0.1276 
     52 H18         6.3294   16.9587    4.3301 H         1 <0>         0.1276 
     53 H19         6.8097   16.0934    2.1149 H         1 <0>         0.1326 
     54 H20         4.9396   17.0618    7.7123 H         1 <0>         0.0596 
     55 H21         4.9125   17.3256    5.9686 H         1 <0>         0.0596 
     56 H22         6.4315   17.4658    6.8600 H         1 <0>         0.0596 
     57 H23         5.6887   15.1822    8.6708 H         1 <0>         0.0596 
     58 H24         6.9317   14.2533    7.8399 H         1 <0>         0.0596 
     59 H25         5.2386   13.8123    7.6692 H         1 <0>         0.0596 
     60 H26        11.8929   12.2344    1.0735 H         1 <0>         0.0635 
     61 H27        11.5548   13.8498    1.6684 H         1 <0>         0.0635 
     62 H28        11.5470   12.7548    4.0476 H         1 <0>         0.0823 
     63 H29        12.3113   11.3892    3.2649 H         1 <0>         0.0823 
     64 H30        14.5728   11.7437    2.1227 H         1 <0>         0.1333 
     65 H31        16.7457   12.9114    2.3485 H         1 <0>         0.1307 
     66 H32        16.8922   14.9990    3.6520 H         1 <0>         0.1293 
     67 H33        14.8828   15.9250    4.7655 H         1 <0>         0.1307 
     68 H34        12.7256   14.7547    4.5684 H         1 <0>         0.1333 
@<TRIPOS>BOND
     1    1    2 1    
     2    1   36 1    
     3    1   37 1    
     4    1   38 1    
     5    2    8 1    
     6    2    3 2    
     7    3    4 1    
     8    3   25 1    
     9    4    5 1    
    10    4    6 1    
    11    4   16 1    
    12    6   12 1    
    13    6    7 2    
    14    7    8 1    
    15    7    9 1    
    16    8   39 1    
    17    9   10 1    
    18    9   40 1    
    19    9   41 1    
    20   10   11 1    
    21   10   14 1    
    22   10   15 1    
    23   11   12 1    
    24   11   42 1    
    25   11   43 1    
    26   12   13 2    
    27   14   44 1    
    28   14   45 1    
    29   14   46 1    
    30   15   47 1    
    31   15   48 1    
    32   15   49 1    
    33   16   21 ar   
    34   16   17 ar   
    35   17   18 ar   
    36   17   50 1    
    37   18   19 ar   
    38   18   51 1    
    39   19   20 ar   
    40   19   22 1    
    41   20   21 ar   
    42   20   52 1    
    43   21   53 1    
    44   22   23 1    
    45   22   24 1    
    46   23   54 1    
    47   23   55 1    
    48   23   56 1    
    49   24   57 1    
    50   24   58 1    
    51   24   59 1    
    52   25   26 2    
    53   25   27 1    
    54   27   28 1    
    55   28   29 1    
    56   28   60 1    
    57   28   61 1    
    58   29   30 1    
    59   29   62 1    
    60   29   63 1    
    61   30   35 ar   
    62   30   31 ar   
    63   31   32 ar   
    64   31   64 1    
    65   32   33 ar   
    66   32   65 1    
    67   33   34 ar   
    68   33   66 1    
    69   34   35 ar   
    70   34   67 1    
    71   35   68 1    
@<TRIPOS>SUBSTRUCTURE
     1 <0>         1 GROUP             0       ****    0 ROOT    
@<TRIPOS>MOLECULE
ZINC01944490
64   66    1
SMALL
USER_CHARGES


@<TRIPOS>ATOM
      1 C1          5.5577   13.2721    6.4624 C.3       1 <0>        -0.2213 
      2 C2          5.7399   14.0452    5.1544 C.3       1 <0>         0.1530 
      3 O1          6.7723   13.4454    4.3720 O.3       1 <0>        -0.3196 
      4 C3          7.6211   14.2112    3.6360 C.2       1 <0>         0.4200 
      5 O2          7.6308   15.4499    3.5884 O.2       1 <0>        -0.4208 
      6 C4          8.6064   13.3815    2.9488 C.2       1 <0>        -0.0372 
      7 C5         10.0026   13.4643    3.1733 C.2       1 <0>         0.0423 
      8 C6         10.7324   12.5861    2.3687 C.2       1 <0>        -0.0881 
      9 S1          9.7386   11.6752    1.3037 S.3       1 <0>         0.0906 
     10 C7          8.3009   12.4225    1.9642 C.2       1 <0>         0.0398 
     11 N1          7.0213   12.0675    1.5361 N.am      1 <0>        -0.3663 
     12 C8          6.6836   11.3149    0.4633 C.2       1 <0>         0.4638 
     13 O3          7.4720   10.8973   -0.3886 O.2       1 <0>        -0.4764 
     14 C9          5.1832   11.0105    0.3182 C.3       1 <0>         0.1151 
     15 O4          5.0334    9.9513   -0.6257 O.3       1 <0>        -0.3404 
     16 C10         3.7753    9.8045   -1.1625 C.ar      1 <0>         0.1057 
     17 C11         2.9389    8.7926   -0.6599 C.ar      1 <0>        -0.0815 
     18 C12         1.6793    8.5880   -1.2323 C.ar      1 <0>        -0.1301 
     19 C13         1.2607    9.3806   -2.2973 C.ar      1 <0>        -0.1258 
     20 C14         2.0864   10.3844   -2.8028 C.ar      1 <0>        -0.1301 
     21 C15         3.3515   10.6036   -2.2385 C.ar      1 <0>        -0.0815 
     22 C16         4.2580   11.6689   -2.8381 C.3       1 <0>        -0.1267 
     23 C17         3.3973    7.8978    0.4853 C.3       1 <0>        -0.1267 
     24 C18        12.2222   12.3513    2.4407 C.3       1 <0>        -0.1246 
     25 C19        12.9307   13.5317    3.1587 C.3       1 <0>        -0.0677 
     26 H1         12.8679   14.3717    2.4695 H         1 <0>         0.0720 
     27 C20        12.1514   13.8816    4.4591 C.3       1 <0>        -0.1279 
     28 C21        10.6886   14.3380    4.2308 C.3       1 <0>        -0.1394 
     29 C22        14.4687   13.2493    3.3907 C.3       1 <0>        -0.0310 
     30 C23        14.6696   12.0064    4.2868 C.3       1 <0>        -0.1675 
     31 C24        15.2272   12.9864    2.0598 C.3       1 <0>        -0.1675 
     32 C25        15.1628   14.4645    4.0578 C.3       1 <0>        -0.1675 
     33 H2          4.6601   13.5986    6.9847 H         1 <0>         0.0735 
     34 H3          6.4001   13.4171    7.1477 H         1 <0>         0.0735 
     35 H4          5.4524   12.2007    6.2804 H         1 <0>         0.0735 
     36 H5          4.8149   14.0428    4.5769 H         1 <0>         0.0453 
     37 H6          5.9501   15.0894    5.3939 H         1 <0>         0.0453 
     38 H7          6.2629   12.4644    2.0754 H         1 <0>         0.2931 
     39 H8          4.7578   10.7087    1.2785 H         1 <0>         0.0531 
     40 H9          4.6804   11.9228   -0.0107 H         1 <0>         0.0531 
     41 H10         1.0274    7.8055   -0.8608 H         1 <0>         0.1332 
     42 H11         0.2963    9.2131   -2.7489 H         1 <0>         0.1312 
     43 H12         1.7501   10.9855   -3.6344 H         1 <0>         0.1332 
     44 H13         4.0683   11.7991   -3.9019 H         1 <0>         0.0740 
     45 H14         5.3089   11.3896   -2.7458 H         1 <0>         0.0740 
     46 H15         4.1071   12.6239   -2.3375 H         1 <0>         0.0740 
     47 H16         2.8666    6.9415    0.4935 H         1 <0>         0.0740 
     48 H17         3.2437    8.3981    1.4438 H         1 <0>         0.0740 
     49 H18         4.4582    7.6629    0.3921 H         1 <0>         0.0740 
     50 H19        12.3496   11.4304    2.9959 H         1 <0>         0.0797 
     51 H20        12.6230   12.1878    1.4410 H         1 <0>         0.0797 
     52 H21        12.1836   13.0525    5.1622 H         1 <0>         0.0719 
     53 H22        12.6644   14.6863    4.9880 H         1 <0>         0.0719 
     54 H23        10.6613   15.3819    3.9302 H         1 <0>         0.0847 
     55 H24        10.1424   14.2980    5.1748 H         1 <0>         0.0847 
     56 H25        15.7270   11.8102    4.4545 H         1 <0>         0.0598 
     57 H26        14.2631   11.0999    3.8427 H         1 <0>         0.0598 
     58 H27        14.2176   12.1292    5.2628 H         1 <0>         0.0598 
     59 H28        16.2794   12.7493    2.2433 H         1 <0>         0.0598 
     60 H29        15.2314   13.8489    1.3940 H         1 <0>         0.0598 
     61 H30        14.8282   12.1376    1.5070 H         1 <0>         0.0598 
     62 H31        16.2518   14.3603    4.0629 H         1 <0>         0.0598 
     63 H32        14.8544   14.5908    5.0945 H         1 <0>         0.0598 
     64 H33        14.9329   15.3955    3.5364 H         1 <0>         0.0598 
@<TRIPOS>BOND
     1    1    2 1    
     2    1   33 1    
     3    1   34 1    
     4    1   35 1    
     5    2    3 1    
     6    2   36 1    
     7    2   37 1    
     8    3    4 1    
     9    4    5 2    
    10    4    6 1    
    11    6   10 2    
    12    6    7 1    
    13    7   28 1    
    14    7    8 2    
    15    8    9 1    
    16    8   24 1    
    17    9   10 1    
    18   10   11 am   BACKBONE|DICT|INTERRES
    19   11   12 am   BACKBONE|DICT|INTERRES
    20   11   38 1    
    21   12   13 2    
    22   12   14 1    
    23   14   15 1    
    24   14   39 1    
    25   14   40 1    
    26   15   16 1    
    27   16   21 ar   
    28   16   17 ar   
    29   17   18 ar   
    30   17   23 1    
    31   18   19 ar   
    32   18   41 1    
    33   19   20 ar   
    34   19   42 1    
    35   20   21 ar   
    36   20   43 1    
    37   21   22 1    
    38   22   44 1    
    39   22   45 1    
    40   22   46 1    
    41   23   47 1    
    42   23   48 1    
    43   23   49 1    
    44   24   25 1    
    45   24   50 1    
    46   24   51 1    
    47   25   26 1    
    48   25   27 1    
    49   25   29 1    
    50   27   28 1    
    51   27   52 1    
    52   27   53 1    
    53   28   54 1    
    54   28   55 1    
    55   29   30 1    
    56   29   31 1    
    57   29   32 1    
    58   30   56 1    
    59   30   57 1    
    60   30   58 1    
    61   31   59 1    
    62   31   60 1    
    63   31   61 1    
    64   32   62 1    
    65   32   63 1    
    66   32   64 1    
@<TRIPOS>SUBSTRUCTURE
     1 <0>         1 GROUP             0       ****    0 ROOT    
@<TRIPOS>MOLECULE
ZINC01944453
64   66    1
SMALL
USER_CHARGES


@<TRIPOS>ATOM
      1 C1         19.2238   17.8970    5.2889 C.3       1 <0>        -0.1684 
      2 C2         19.1624   16.3676    5.4206 C.3       1 <0>        -0.0800 
      3 C3         17.8962   15.7469    4.8459 C.ar      1 <0>        -0.1131 
      4 C4         17.9984   14.8541    3.7791 C.ar      1 <0>        -0.0925 
      5 C5         16.8538   14.2571    3.2653 C.ar      1 <0>        -0.1754 
      6 C6         15.5987   14.5524    3.7916 C.ar      1 <0>         0.1516 
      7 C7         15.4913   15.4523    4.8642 C.ar      1 <0>        -0.1754 
      8 C8         16.6422   16.0376    5.3953 C.ar      1 <0>        -0.0925 
      9 O1         14.5472   13.8822    3.2060 O.3       1 <0>        -0.3385 
     10 C9         13.2209   13.9933    3.7219 C.3       1 <0>         0.1171 
     11 C10        12.2969   13.0828    2.8884 C.2       1 <0>         0.4686 
     12 O2         12.7950   12.2537    2.1288 O.2       1 <0>        -0.4732 
     13 N1         10.9668   13.2804    3.0428 N.am      1 <0>        -0.3624 
     14 C11         9.9022   12.5847    2.4498 C.2       1 <0>         0.0368 
     15 C12         8.5308   12.8287    2.6903 C.2       1 <0>        -0.0357 
     16 C13         7.7197   11.8637    2.0146 C.2       1 <0>         0.0418 
     17 C14         8.4674   10.9665    1.2401 C.2       1 <0>        -0.0867 
     18 S1         10.1553   11.2646    1.3378 S.3       1 <0>         0.0930 
     19 C15         7.9070    9.7992    0.4383 C.3       1 <0>        -0.1249 
     20 C16         6.3998   10.0410    0.1463 C.3       1 <0>        -0.0677 
     21 H1          6.3208   10.9050   -0.5175 H         1 <0>         0.0720 
     22 C17         5.7197   10.3928    1.4945 C.3       1 <0>        -0.1279 
     23 C18         6.1869   11.7492    2.0642 C.3       1 <0>        -0.1394 
     24 C19         5.7187    8.8441   -0.6251 C.3       1 <0>        -0.0310 
     25 C20         5.6599    7.5475    0.2228 C.3       1 <0>        -0.1676 
     26 C21         4.2704    9.2204   -1.0324 C.3       1 <0>        -0.1676 
     27 C22         6.4929    8.5285   -1.9311 C.3       1 <0>        -0.1676 
     28 C23         8.0474   13.9423    3.5233 C.2       1 <0>         0.4197 
     29 O3          8.6395   15.0205    3.6135 O.2       1 <0>        -0.4208 
     30 O4          6.9128   13.6342    4.1878 O.3       1 <0>        -0.3195 
     31 C24         6.3362   14.5163    5.1460 C.3       1 <0>         0.1530 
     32 C25         7.0315   14.3776    6.5086 C.3       1 <0>        -0.2214 
     33 H2         20.1732   18.2787    5.6657 H         1 <0>         0.0613 
     34 H3         18.4313   18.3816    5.8585 H         1 <0>         0.0613 
     35 H4         19.1334   18.2090    4.2478 H         1 <0>         0.0613 
     36 H5         20.0401   15.9372    4.9354 H         1 <0>         0.0703 
     37 H6         19.2371   16.0712    6.4641 H         1 <0>         0.0703 
     38 H7         18.9618   14.6088    3.3534 H         1 <0>         0.1339 
     39 H8         16.9417   13.5415    2.4637 H         1 <0>         0.1377 
     40 H9         14.5326   15.6894    5.2986 H         1 <0>         0.1377 
     41 H10        16.5567   16.7180    6.2301 H         1 <0>         0.1339 
     42 H11        13.1972   13.6571    4.7598 H         1 <0>         0.0553 
     43 H12        12.8796   15.0267    3.6717 H         1 <0>         0.0553 
     44 H13        10.6817   14.0176    3.6707 H         1 <0>         0.2925 
     45 H14         8.4820    9.6715   -0.4783 H         1 <0>         0.0800 
     46 H15         8.0341    8.8874    1.0214 H         1 <0>         0.0800 
     47 H16         4.6412   10.4690    1.3654 H         1 <0>         0.0721 
     48 H17         5.8450    9.5833    2.2159 H         1 <0>         0.0721 
     49 H18         5.8004   11.8142    3.0799 H         1 <0>         0.0848 
     50 H19         5.7368   12.5675    1.5012 H         1 <0>         0.0848 
     51 H20         5.1865    6.7345   -0.3293 H         1 <0>         0.0599 
     52 H21         5.0827    7.6812    1.1380 H         1 <0>         0.0599 
     53 H22         6.6507    7.1951    0.5093 H         1 <0>         0.0599 
     54 H23         3.8282    8.4675   -1.6866 H         1 <0>         0.0599 
     55 H24         4.2380   10.1698   -1.5689 H         1 <0>         0.0599 
     56 H25         3.6043    9.3051   -0.1745 H         1 <0>         0.0599 
     57 H26         5.9611    7.8054   -2.5511 H         1 <0>         0.0599 
     58 H27         7.4749    8.0977   -1.7338 H         1 <0>         0.0599 
     59 H28         6.6423    9.4244   -2.5357 H         1 <0>         0.0599 
     60 H29         6.3599   15.5492    4.7949 H         1 <0>         0.0456 
     61 H30         5.2852   14.2499    5.2549 H         1 <0>         0.0456 
     62 H31         6.5550   15.0114    7.2563 H         1 <0>         0.0736 
     63 H32         8.0844   14.6526    6.4536 H         1 <0>         0.0736 
     64 H33         6.9741   13.3486    6.8665 H         1 <0>         0.0736 
@<TRIPOS>BOND
     1    1    2 1    
     2    1   33 1    
     3    1   34 1    
     4    1   35 1    
     5    2    3 1    
     6    2   36 1    
     7    2   37 1    
     8    3    8 ar   
     9    3    4 ar   
    10    4    5 ar   
    11    4   38 1    
    12    5    6 ar   
    13    5   39 1    
    14    6    7 ar   
    15    6    9 1    
    16    7    8 ar   
    17    7   40 1    
    18    8   41 1    
    19    9   10 1    
    20   10   11 1    
    21   10   42 1    
    22   10   43 1    
    23   11   12 2    
    24   11   13 am   BACKBONE|DICT|INTERRES
    25   13   14 am   BACKBONE|DICT|INTERRES
    26   13   44 1    
    27   14   18 1    
    28   14   15 2    
    29   15   16 1    
    30   15   28 1    
    31   16   23 1    
    32   16   17 2    
    33   17   18 1    
    34   17   19 1    
    35   19   20 1    
    36   19   45 1    
    37   19   46 1    
    38   20   21 1    
    39   20   22 1    
    40   20   24 1    
    41   22   23 1    
    42   22   47 1    
    43   22   48 1    
    44   23   49 1    
    45   23   50 1    
    46   24   25 1    
    47   24   26 1    
    48   24   27 1    
    49   25   51 1    
    50   25   52 1    
    51   25   53 1    
    52   26   54 1    
    53   26   55 1    
    54   26   56 1    
    55   27   57 1    
    56   27   58 1    
    57   27   59 1    
    58   28   29 2    
    59   28   30 1    
    60   30   31 1    
    61   31   32 1    
    62   31   60 1    
    63   31   61 1    
    64   32   62 1    
    65   32   63 1    
    66   32   64 1    
@<TRIPOS>SUBSTRUCTURE
     1 <0>         1 GROUP             0       ****    0 ROOT    
@<TRIPOS>MOLECULE
ZINC20367446
62   65    1
SMALL
USER_CHARGES


@<TRIPOS>ATOM
      1 C1         18.0014   15.2957    3.3990 C.3       1 <0>        -0.1303 
      2 C2         16.5724   14.8329    3.6246 C.ar      1 <0>        -0.0661 
      3 C3         15.8025   15.4515    4.6099 C.ar      1 <0>        -0.1288 
      4 C4         14.5139   14.9995    4.8643 C.ar      1 <0>        -0.1032 
      5 C5         14.0027   13.8986    4.1748 C.ar      1 <0>        -0.1251 
      6 C6         14.7591   13.3077    3.1579 C.ar      1 <0>        -0.1032 
      7 C7         16.0391   13.7787    2.8779 C.ar      1 <0>        -0.1288 
      8 C8         12.7484   13.2134    4.7016 C.3       1 <0>        -0.0034 
      9 N1         11.4468   13.4537    4.0674 N.pl3     1 <0>        -0.0209 
     10 C9         10.4351   14.1919    4.6319 C.ar      1 <0>        -0.1137 
     11 C10         9.2512   14.0778    3.9294 C.ar      1 <0>        -0.3372 
     12 C11         9.5606   13.2013    2.8302 C.ar      1 <0>         0.2855 
     13 C12        10.9375   12.8169    2.9444 C.ar      1 <0>         0.0775 
     14 C13        11.5094   11.8736    2.0811 C.ar      1 <0>        -0.2590 
     15 C14        10.6827   11.3128    1.1129 C.ar      1 <0>        -0.1625 
     16 C15         9.3634   11.7075    0.9443 C.ar      1 <0>        -0.1695 
     17 C16         8.7929   12.6549    1.7861 C.ar      1 <0>        -0.2732 
     18 C17         7.9671   14.6537    4.3013 C.2       1 <0>         0.2239 
     19 N2          6.9986   14.7124    3.4913 N.2       1 <0>        -0.3984 
     20 N3          5.8474   15.2280    3.9694 N.pl3     1 <0>        -0.2384 
     21 S1          4.3618   14.8643    3.1006 S.o2      1 <0>         0.9191 
     22 O1          4.5290   15.2842    1.7041 O.2       1 <0>        -0.4749 
     23 O2          3.2466   15.3640    3.9123 O.2       1 <0>        -0.4749 
     24 C18         4.2726   13.0753    3.1207 C.ar      1 <0>        -0.2026 
     25 C19         3.7984   12.4158    4.2541 C.ar      1 <0>        -0.0282 
     26 C20         3.7636   11.0248    4.2787 C.ar      1 <0>        -0.1450 
     27 C21         4.2025   10.2730    3.1783 C.ar      1 <0>        -0.0069 
     28 C22         4.6820   10.9556    2.0487 C.ar      1 <0>        -0.1450 
     29 C23         4.7162   12.3458    2.0188 C.ar      1 <0>        -0.0282 
     30 C24         4.1439    8.7264    3.2433 C.3       1 <0>         0.0028 
     31 C25         2.6778    8.2669    3.4346 C.3       1 <0>        -0.1669 
     32 C26         4.6877    8.0345    1.9644 C.3       1 <0>        -0.1669 
     33 C27         4.9921    8.2184    4.4316 C.3       1 <0>        -0.1669 
     34 H1         18.4999   15.4459    4.3570 H         1 <0>         0.0723 
     35 H2         18.0255   16.2458    2.8643 H         1 <0>         0.0723 
     36 H3         18.5912   14.5546    2.8591 H         1 <0>         0.0723 
     37 H4         16.2077   16.2660    5.1928 H         1 <0>         0.1346 
     38 H5         13.9583   15.4538    5.6642 H         1 <0>         0.1298 
     39 H6         14.3988   12.4392    2.6299 H         1 <0>         0.1298 
     40 H7         16.6304   13.2887    2.1183 H         1 <0>         0.1346 
     41 H8         12.9439   12.1449    4.6478 H         1 <0>         0.0910 
     42 H9         12.6473   13.4079    5.7714 H         1 <0>         0.0910 
     43 H10        10.6158   14.6833    5.5727 H         1 <0>         0.1990 
     44 H11        12.5221   11.5227    2.1900 H         1 <0>         0.1644 
     45 H12        11.0803   10.5428    0.4666 H         1 <0>         0.1488 
     46 H13         8.7691   11.2502    0.1659 H         1 <0>         0.1523 
     47 H14         7.7536   12.9217    1.6688 H         1 <0>         0.2006 
     48 H15         7.9302   15.0150    5.3264 H         1 <0>         0.0606 
     49 H16         5.7455   15.2459    4.9873 H         1 <0>         0.2547 
     50 H17         3.4622   12.9729    5.1171 H         1 <0>         0.1481 
     51 H18         3.3946   10.5315    5.1667 H         1 <0>         0.1381 
     52 H19         5.0389   10.4279    1.1786 H         1 <0>         0.1381 
     53 H20         5.0978   12.8499    1.1426 H         1 <0>         0.1481 
     54 H21         2.5992    7.1790    3.4660 H         1 <0>         0.0643 
     55 H22         2.0408    8.6159    2.6207 H         1 <0>         0.0643 
     56 H23         2.2498    8.6374    4.3670 H         1 <0>         0.0643 
     57 H24         4.6327    6.9474    2.0429 H         1 <0>         0.0643 
     58 H25         5.7352    8.2833    1.7854 H         1 <0>         0.0643 
     59 H26         4.1178    8.3142    1.0770 H         1 <0>         0.0643 
     60 H27         4.9924    7.1290    4.4645 H         1 <0>         0.0643 
     61 H28         4.6130    8.5618    5.3953 H         1 <0>         0.0643 
     62 H29         6.0317    8.5420    4.3543 H         1 <0>         0.0643 
@<TRIPOS>BOND
     1    1    2 1    
     2    1   34 1    
     3    1   35 1    
     4    1   36 1    
     5    2    7 ar   
     6    2    3 ar   
     7    3    4 ar   
     8    3   37 1    
     9    4    5 ar   
    10    4   38 1    
    11    5    6 ar   
    12    5    8 1    
    13    6    7 ar   
    14    6   39 1    
    15    7   40 1    
    16    8    9 1    
    17    8   41 1    
    18    8   42 1    
    19    9   13 ar   
    20    9   10 ar   
    21   10   11 ar   
    22   10   43 1    
    23   11   12 ar   
    24   11   18 1    
    25   12   17 ar   
    26   12   13 ar   
    27   13   14 ar   
    28   14   15 ar   
    29   14   44 1    
    30   15   16 ar   
    31   15   45 1    
    32   16   17 ar   
    33   16   46 1    
    34   17   47 1    
    35   18   19 2    
    36   18   48 1    
    37   19   20 1    
    38   20   21 1    
    39   20   49 1    
    40   21   22 2    
    41   21   23 2    
    42   21   24 1    
    43   24   29 ar   
    44   24   25 ar   
    45   25   26 ar   
    46   25   50 1    
    47   26   27 ar   
    48   26   51 1    
    49   27   28 ar   
    50   27   30 1    
    51   28   29 ar   
    52   28   52 1    
    53   29   53 1    
    54   30   31 1    
    55   30   32 1    
    56   30   33 1    
    57   31   54 1    
    58   31   55 1    
    59   31   56 1    
    60   32   57 1    
    61   32   58 1    
    62   32   59 1    
    63   33   60 1    
    64   33   61 1    
    65   33   62 1    
@<TRIPOS>SUBSTRUCTURE
     1 <0>         1 GROUP             0       ****    0 ROOT    
@<TRIPOS>MOLECULE
ZINC01456675
64   67    1
SMALL
USER_CHARGES


@<TRIPOS>ATOM
      1 C1          4.2033    8.8387    3.7058 C.3       1 <0>        -0.2210 
      2 C2          5.0923    9.6027    4.6886 C.3       1 <0>         0.1504 
      3 O1          5.1397   10.9786    4.3285 O.3       1 <0>        -0.3147 
      4 C3          5.9199   11.8383    5.0257 C.2       1 <0>         0.4679 
      5 O2          6.6158   11.4804    5.9845 O.2       1 <0>        -0.4394 
      6 C4          5.8899   13.2393    4.5059 C.2       1 <0>        -0.2102 
      7 C5          6.2874   14.2811    5.2912 C.2       1 <0>         0.0820 
      8 N1          6.3479   15.5551    4.7845 N.pl3     1 <0>        -0.2643 
      9 C6          6.0301   15.9055    3.4975 C.2       1 <0>         0.0924 
     10 C7          5.6463   14.9612    2.5941 C.2       1 <0>        -0.2480 
     11 C8          5.5160   13.4570    3.0009 C.3       1 <0>         0.1021 
     12 H1          4.4625   13.2023    2.9011 H         1 <0>         0.0975 
     13 C9          6.2523   12.5180    2.0220 C.ar      1 <0>        -0.0796 
     14 C10         7.6467   12.5693    2.0458 C.ar      1 <0>        -0.0798 
     15 C11         8.4350   11.8063    1.1800 C.ar      1 <0>        -0.1121 
     16 C12         7.7911   11.0007    0.2260 C.ar      1 <0>        -0.0440 
     17 C13         6.3956   10.9164    0.2155 C.ar      1 <0>        -0.1370 
     18 C14         5.6154   11.6498    1.1132 C.ar      1 <0>        -0.0315 
     19 C15         4.1021   11.4661    1.0701 C.3       1 <0>        -0.1319 
     20 C16         8.5707   10.2199   -0.8175 C.3       1 <0>        -0.1302 
     21 C17         9.9629   11.8586    1.3015 C.3       1 <0>         0.2125 
     22 O3         10.3409   12.6978    2.3978 O.3       1 <0>        -0.3644 
     23 C18        11.6653   12.9152    2.7005 C.ar      1 <0>         0.1471 
     24 C19        12.7363   12.2541    2.0925 C.ar      1 <0>        -0.1588 
     25 C20        14.0444   12.5714    2.4554 C.ar      1 <0>        -0.1341 
     26 C21        14.2887   13.5614    3.3977 C.ar      1 <0>         0.1743 
     27 C22        13.2300   14.1889    4.0478 C.ar      1 <0>        -0.1341 
     28 C23        11.9213   13.8534    3.7032 C.ar      1 <0>        -0.1588 
     29 F1         15.5629   13.9284    3.6544 F         1 <0>        -0.2252 
     30 C24         5.3204   15.3587    1.1968 C.2       1 <0>         0.4486 
     31 O4          4.6819   14.6362    0.4362 O.2       1 <0>        -0.4592 
     32 C25         5.5946   16.8168    0.7852 C.3       1 <0>        -0.1961 
     33 C26         6.6725   17.4782    1.6568 C.3       1 <0>        -0.1237 
     34 C27         6.2975   17.3660    3.1428 C.3       1 <0>        -0.1223 
     35 C28         6.6099   14.2549    6.7771 C.3       1 <0>        -0.1641 
     36 H2          4.1745    7.7795    3.9605 H         1 <0>         0.0729 
     37 H3          4.5761    8.9279    2.6860 H         1 <0>         0.0729 
     38 H4          3.1812    9.2143    3.7287 H         1 <0>         0.0729 
     39 H5          4.7054    9.4939    5.7026 H         1 <0>         0.0441 
     40 H6          6.0970    9.1792    4.6779 H         1 <0>         0.0441 
     41 H7          6.4286   16.3024    5.4554 H         1 <0>         0.2651 
     42 H8          8.1116   13.2234    2.7684 H         1 <0>         0.1317 
     43 H9          5.9106   10.2718   -0.5034 H         1 <0>         0.1316 
     44 H10         3.8085   10.6284    0.4366 H         1 <0>         0.0725 
     45 H11         3.6054   12.3638    0.7047 H         1 <0>         0.0725 
     46 H12         3.7117   11.2563    2.0650 H         1 <0>         0.0725 
     47 H13         7.9209    9.7280   -1.5421 H         1 <0>         0.0708 
     48 H14         9.1753    9.4594   -0.3364 H         1 <0>         0.0708 
     49 H15         9.2324   10.8846   -1.3725 H         1 <0>         0.0708 
     50 H16        10.3355   10.8448    1.4609 H         1 <0>         0.0390 
     51 H17        10.3860   12.2405    0.3709 H         1 <0>         0.0390 
     52 H18        12.5737   11.4982    1.3375 H         1 <0>         0.1445 
     53 H19        14.8677   12.0717    1.9681 H         1 <0>         0.1464 
     54 H20        13.4235   14.9451    4.7945 H         1 <0>         0.1464 
     55 H21        11.0954   14.3473    4.1920 H         1 <0>         0.1445 
     56 H22         5.8260   16.8575   -0.2794 H         1 <0>         0.1001 
     57 H23         4.6579   17.3543    0.9348 H         1 <0>         0.1001 
     58 H24         7.6304   16.9894    1.4708 H         1 <0>         0.0775 
     59 H25         6.8088   18.5235    1.3764 H         1 <0>         0.0775 
     60 H26         5.4880   18.0262    3.4575 H         1 <0>         0.0874 
     61 H27         7.1960   17.6967    3.6627 H         1 <0>         0.0874 
     62 H28         6.3779   15.1973    7.2753 H         1 <0>         0.0849 
     63 H29         7.6617   14.0229    6.9450 H         1 <0>         0.0849 
     64 H30         5.9984   13.4974    7.2647 H         1 <0>         0.0849 
@<TRIPOS>BOND
     1    1    2 1    
     2    1   36 1    
     3    1   37 1    
     4    1   38 1    
     5    2    3 1    
     6    2   39 1    
     7    2   40 1    
     8    3    4 1    
     9    4    5 2    
    10    4    6 1    
    11    6   11 1    
    12    6    7 2    
    13    7    8 1    
    14    7   35 1    
    15    8    9 1    
    16    8   41 1    
    17    9   34 1    
    18    9   10 2    
    19   10   11 1    
    20   10   30 1    
    21   11   12 1    
    22   11   13 1    
    23   13   18 ar   
    24   13   14 ar   
    25   14   15 ar   
    26   14   42 1    
    27   15   16 ar   
    28   15   21 1    
    29   16   17 ar   
    30   16   20 1    
    31   17   18 ar   
    32   17   43 1    
    33   18   19 1    
    34   19   44 1    
    35   19   45 1    
    36   19   46 1    
    37   20   47 1    
    38   20   48 1    
    39   20   49 1    
    40   21   22 1    
    41   21   50 1    
    42   21   51 1    
    43   22   23 1    
    44   23   28 ar   
    45   23   24 ar   
    46   24   25 ar   
    47   24   52 1    
    48   25   26 ar   
    49   25   53 1    
    50   26   27 ar   
    51   26   29 1    
    52   27   28 ar   
    53   27   54 1    
    54   28   55 1    
    55   30   31 2    
    56   30   32 1    
    57   32   33 1    
    58   32   56 1    
    59   32   57 1    
    60   33   34 1    
    61   33   58 1    
    62   33   59 1    
    63   34   60 1    
    64   34   61 1    
    65   35   62 1    
    66   35   63 1    
    67   35   64 1    
@<TRIPOS>SUBSTRUCTURE
     1 <0>         1 GROUP             0       ****    0 ROOT    
@<TRIPOS>MOLECULE
ZINC21238084
69   72    1
SMALL
USER_CHARGES


@<TRIPOS>ATOM
      1 C1         18.7221    6.3311   -2.9375 C.3       1 <0>        -0.1705 
      2 C2         17.5284    5.4251   -3.2759 C.3       1 <0>        -0.1779 
      3 C3         16.3364    6.2016   -3.8486 C.3       1 <0>         0.1970 
      4 O1         15.2649    5.2922   -4.0940 O.3       1 <0>        -0.3596 
      5 C4         14.0158    5.7869   -4.4325 C.ar      1 <0>         0.1425 
      6 C5         13.7864    7.1350   -4.7369 C.ar      1 <0>        -0.1763 
      7 C6         12.5117    7.5999   -5.0302 C.ar      1 <0>        -0.1114 
      8 C7         11.4228    6.7286   -5.0264 C.ar      1 <0>        -0.0794 
      9 C8         11.6455    5.3754   -4.7428 C.ar      1 <0>        -0.1626 
     10 C9         12.9335    4.8935   -4.4442 C.ar      1 <0>         0.1296 
     11 O2         13.2038    3.5727   -4.1340 O.3       1 <0>        -0.3503 
     12 C10        12.1260    2.6650   -3.9355 C.3       1 <0>         0.1382 
     13 C11        10.0010    7.2507   -5.2881 C.3       1 <0>         0.0269 
     14 H1          9.3703    6.3622   -5.2078 H         1 <0>         0.1011 
     15 C12         9.8083    7.8367   -6.7288 C.3       1 <0>        -0.1553 
     16 C13        10.2132    9.3301   -6.8662 C.2       1 <0>         0.4447 
     17 O3         10.5876    9.8532   -7.9141 O.2       1 <0>        -0.5036 
     18 N1         10.0243   10.0495   -5.7409 N.am      1 <0>        -0.2661 
     19 C14         9.6018    9.5812   -4.5366 C.2       1 <0>         0.0740 
     20 C15         9.5238    8.2608   -4.2323 C.2       1 <0>        -0.2561 
     21 C16         9.1839    7.7799   -2.8740 C.2       1 <0>         0.4550 
     22 O4          9.3311    6.6029   -2.5478 O.2       1 <0>        -0.4551 
     23 C17         8.7859    8.8324   -1.8245 C.3       1 <0>        -0.1903 
     24 C18         8.2713   10.1392   -2.4693 C.3       1 <0>        -0.0269 
     25 H2          7.3477    9.8914   -2.9999 H         1 <0>         0.0845 
     26 C19         9.2427   10.6808   -3.5430 C.3       1 <0>        -0.1323 
     27 C20         7.8307   11.2366   -1.4931 C.ar      1 <0>        -0.0944 
     28 C21         8.3139   11.3001   -0.1825 C.ar      1 <0>        -0.1217 
     29 C22         7.8694   12.2996    0.6799 C.ar      1 <0>        -0.1240 
     30 C23         6.9200   13.2459    0.2639 C.ar      1 <0>        -0.0574 
     31 C24         6.4313   13.1630   -1.0488 C.ar      1 <0>        -0.1240 
     32 C25         6.8879   12.1766   -1.9166 C.ar      1 <0>        -0.1217 
     33 C26         6.4374   14.3372    1.2552 C.3       1 <0>         0.0096 
     34 C27         7.6225   15.2562    1.6339 C.3       1 <0>        -0.1660 
     35 C28         5.3154   15.2409    0.6777 C.3       1 <0>        -0.1660 
     36 C29         5.8762   13.6754    2.5387 C.3       1 <0>        -0.1660 
     37 H3         19.5524    5.7489   -2.5369 H         1 <0>         0.0622 
     38 H4         18.4511    7.0752   -2.1874 H         1 <0>         0.0622 
     39 H5         19.0836    6.8603   -3.8201 H         1 <0>         0.0622 
     40 H6         17.8394    4.6599   -3.9882 H         1 <0>         0.0808 
     41 H7         17.2119    4.8957   -2.3758 H         1 <0>         0.0808 
     42 H8         16.0325    6.9659   -3.1304 H         1 <0>         0.0325 
     43 H9         16.6237    6.7008   -4.7759 H         1 <0>         0.0325 
     44 H10        14.5869    7.8529   -4.7337 H         1 <0>         0.1389 
     45 H11        12.3799    8.6515   -5.2329 H         1 <0>         0.1353 
     46 H12        10.8013    4.7040   -4.7344 H         1 <0>         0.1343 
     47 H13        12.5210    1.7101   -3.5888 H         1 <0>         0.0380 
     48 H14        11.5809    2.4837   -4.8625 H         1 <0>         0.0380 
     49 H15        11.4313    3.0251   -3.1746 H         1 <0>         0.0380 
     50 H16        10.2875    7.2315   -7.4987 H         1 <0>         0.1066 
     51 H17         8.7382    7.8820   -6.9342 H         1 <0>         0.1066 
     52 H18        10.2358   11.0383   -5.8192 H         1 <0>         0.2860 
     53 H19         8.0570    8.3838   -1.1493 H         1 <0>         0.1031 
     54 H20         9.6845    9.0519   -1.2485 H         1 <0>         0.1031 
     55 H21        10.1806   11.0532   -3.1356 H         1 <0>         0.0915 
     56 H22         8.7717   11.5312   -4.0415 H         1 <0>         0.0915 
     57 H23         9.0393   10.5868    0.1801 H         1 <0>         0.1303 
     58 H24         8.2698   12.3272    1.6821 H         1 <0>         0.1330 
     59 H25         5.7010   13.8602   -1.4276 H         1 <0>         0.1330 
     60 H26         6.5000   12.1426   -2.9234 H         1 <0>         0.1303 
     61 H27         7.3181   16.0371    2.3323 H         1 <0>         0.0624 
     62 H28         8.0322   15.7526    0.7530 H         1 <0>         0.0624 
     63 H29         8.4316   14.7012    2.1081 H         1 <0>         0.0624 
     64 H30         4.9830   15.9826    1.4057 H         1 <0>         0.0624 
     65 H31         4.4358   14.6616    0.3928 H         1 <0>         0.0624 
     66 H32         5.6520   15.7942   -0.2006 H         1 <0>         0.0624 
     67 H33         5.4923   14.4169    3.2408 H         1 <0>         0.0624 
     68 H34         6.6318   13.1016    3.0755 H         1 <0>         0.0624 
     69 H35         5.0564   12.9940    2.3079 H         1 <0>         0.0624 
@<TRIPOS>BOND
     1    1    2 1    
     2    1   37 1    
     3    1   38 1    
     4    1   39 1    
     5    2    3 1    
     6    2   40 1    
     7    2   41 1    
     8    3    4 1    
     9    3   42 1    
    10    3   43 1    
    11    4    5 1    
    12    5   10 ar   
    13    5    6 ar   
    14    6    7 ar   
    15    6   44 1    
    16    7    8 ar   
    17    7   45 1    
    18    8    9 ar   
    19    8   13 1    
    20    9   10 ar   
    21    9   46 1    
    22   10   11 1    
    23   11   12 1    
    24   12   47 1    
    25   12   48 1    
    26   12   49 1    
    27   13   14 1    
    28   13   20 1    
    29   13   15 1    
    30   15   16 1    
    31   15   50 1    
    32   15   51 1    
    33   16   17 2    
    34   16   18 am   BACKBONE|DICT|INTERRES
    35   18   19 1    
    36   18   52 1    
    37   19   26 1    
    38   19   20 2    
    39   20   21 1    
    40   21   22 2    
    41   21   23 1    
    42   23   24 1    
    43   23   53 1    
    44   23   54 1    
    45   24   25 1    
    46   24   26 1    
    47   24   27 1    
    48   26   55 1    
    49   26   56 1    
    50   27   32 ar   
    51   27   28 ar   
    52   28   29 ar   
    53   28   57 1    
    54   29   30 ar   
    55   29   58 1    
    56   30   31 ar   
    57   30   33 1    
    58   31   32 ar   
    59   31   59 1    
    60   32   60 1    
    61   33   34 1    
    62   33   35 1    
    63   33   36 1    
    64   34   61 1    
    65   34   62 1    
    66   34   63 1    
    67   35   64 1    
    68   35   65 1    
    69   35   66 1    
    70   36   67 1    
    71   36   68 1    
    72   36   69 1    
@<TRIPOS>SUBSTRUCTURE
     1 <0>         1 GROUP             0       ****    0 ROOT    
@<TRIPOS>MOLECULE
ZINC22362127
62   64    1
SMALL
USER_CHARGES


@<TRIPOS>ATOM
      1 C1         12.5579   14.5164    4.4474 C.3       1 <0>        -0.1263 
      2 C2         11.6143   13.6221    3.6635 C.ar      1 <0>        -0.0848 
      3 C3         12.1192   12.6667    2.7816 C.ar      1 <0>        -0.1214 
      4 C4         11.2493   11.8570    2.0573 C.ar      1 <0>        -0.1245 
      5 C5          9.8644   11.9852    2.2027 C.ar      1 <0>        -0.0640 
      6 C6          9.3408   12.9387    3.1014 C.ar      1 <0>        -0.0882 
      7 C7         10.2324   13.7567    3.8144 C.ar      1 <0>        -0.1263 
      8 C8          7.8234   13.0936    3.3265 C.3       1 <0>         0.2031 
      9 H1          7.2879   12.7029    2.4593 H         1 <0>         0.1075 
     10 C9          7.3688   12.2697    4.5419 C.3       1 <0>        -0.1889 
     11 N1          7.3666   14.4799    3.4730 N.am      1 <0>        -0.5809 
     12 C10         7.3355   15.3889    2.4846 C.2       1 <0>         0.5134 
     13 O1          7.6319   15.1248    1.3214 O.2       1 <0>        -0.5054 
     14 C11         6.9021   16.8114    2.8669 C.3       1 <0>        -0.0386 
     15 N2          5.5476   17.0739    2.4397 N.pl3     1 <0>        -0.2058 
     16 C12         5.3146   17.4560    1.1049 C.ar      1 <0>         0.0195 
     17 C13         4.9403   16.4567    0.2031 C.ar      1 <0>        -0.1425 
     18 C14         4.7170   16.7565   -1.1361 C.ar      1 <0>        -0.1293 
     19 C15         4.8595   18.0642   -1.5859 C.ar      1 <0>        -0.1163 
     20 C16         5.2293   19.0830   -0.7039 C.ar      1 <0>        -0.0745 
     21 C17         5.4554   18.7875    0.6562 C.ar      1 <0>        -0.0136 
     22 C18         5.8782   19.9006    1.6178 C.3       1 <0>        -0.1262 
     23 C19         5.3703   20.4972   -1.2515 C.3       1 <0>        -0.1235 
     24 S1          4.3259   17.4610    3.6798 S.o2      1 <0>         0.8627 
     25 O2          3.0214   17.5058    3.0091 O.2       1 <0>        -0.4821 
     26 O3          4.8308   18.6156    4.4306 O.2       1 <0>        -0.4821 
     27 C20         4.3430   16.0436    4.7776 C.ar      1 <0>        -0.1971 
     28 C21         5.1322   16.0619    5.9330 C.ar      1 <0>        -0.0296 
     29 C22         5.1934   14.9328    6.7473 C.ar      1 <0>        -0.1491 
     30 C23         4.4714   13.7923    6.4025 C.ar      1 <0>        -0.0761 
     31 C24         3.6933   13.7667    5.2457 C.ar      1 <0>        -0.1491 
     32 C25         3.6322   14.8930    4.4270 C.ar      1 <0>        -0.0296 
     33 C26         8.9676   11.0627    1.3873 C.3       1 <0>        -0.1310 
     34 H2         13.5455   14.5591    3.9873 H         1 <0>         0.0692 
     35 H3         12.6584   14.1664    5.4748 H         1 <0>         0.0692 
     36 H4         12.1782   15.5379    4.4733 H         1 <0>         0.0692 
     37 H5         13.1849   12.5425    2.6533 H         1 <0>         0.1318 
     38 H6         11.6621   11.1198    1.3820 H         1 <0>         0.1334 
     39 H7          9.8482   14.4900    4.5082 H         1 <0>         0.1222 
     40 H8          6.2879   12.3191    4.6731 H         1 <0>         0.0718 
     41 H9          7.8305   12.6226    5.4649 H         1 <0>         0.0718 
     42 H10         7.6259   11.2173    4.4261 H         1 <0>         0.0718 
     43 H11         7.0223   14.7363    4.3867 H         1 <0>         0.2945 
     44 H12         7.0657   16.9458    3.9362 H         1 <0>         0.0603 
     45 H13         7.6208   17.4820    2.3904 H         1 <0>         0.0603 
     46 H14         4.8330   15.4353    0.5389 H         1 <0>         0.1244 
     47 H15         4.4381   15.9730   -1.8254 H         1 <0>         0.1317 
     48 H16         4.6868   18.2789   -2.6305 H         1 <0>         0.1315 
     49 H17         6.5356   20.6215    1.1328 H         1 <0>         0.0794 
     50 H18         6.4487   19.5266    2.4635 H         1 <0>         0.0794 
     51 H19         5.0025   20.4275    1.9941 H         1 <0>         0.0794 
     52 H20         4.8184   21.2034   -0.6304 H         1 <0>         0.0713 
     53 H21         4.9789   20.5883   -2.2651 H         1 <0>         0.0713 
     54 H22         6.4177   20.8003   -1.2513 H         1 <0>         0.0713 
     55 H23         5.6951   16.9444    6.2021 H         1 <0>         0.1515 
     56 H24         5.7948   14.9300    7.6457 H         1 <0>         0.1390 
     57 H25         4.5224   12.9188    7.0393 H         1 <0>         0.1353 
     58 H26         3.1446   12.8712    4.9860 H         1 <0>         0.1390 
     59 H27         3.0385   14.8698    3.5245 H         1 <0>         0.1515 
     60 H28         8.2640   10.5418    2.0360 H         1 <0>         0.0732 
     61 H29         9.5352   10.2998    0.8512 H         1 <0>         0.0732 
     62 H30         8.3917   11.6367    0.6625 H         1 <0>         0.0732 
@<TRIPOS>BOND
     1    1    2 1    
     2    1   34 1    
     3    1   35 1    
     4    1   36 1    
     5    2    7 ar   
     6    2    3 ar   
     7    3    4 ar   
     8    3   37 1    
     9    4    5 ar   
    10    4   38 1    
    11    5    6 ar   
    12    5   33 1    
    13    6    7 ar   
    14    6    8 1    
    15    7   39 1    
    16    8    9 1    
    17    8   10 1    
    18    8   11 1    
    19   10   40 1    
    20   10   41 1    
    21   10   42 1    
    22   11   12 am   BACKBONE|DICT|INTERRES
    23   11   43 1    
    24   12   13 2    
    25   12   14 1    
    26   14   15 1    
    27   14   44 1    
    28   14   45 1    
    29   15   16 1    
    30   15   24 1    
    31   16   21 ar   
    32   16   17 ar   
    33   17   18 ar   
    34   17   46 1    
    35   18   19 ar   
    36   18   47 1    
    37   19   20 ar   
    38   19   48 1    
    39   20   21 ar   
    40   20   23 1    
    41   21   22 1    
    42   22   49 1    
    43   22   50 1    
    44   22   51 1    
    45   23   52 1    
    46   23   53 1    
    47   23   54 1    
    48   24   25 2    
    49   24   26 2    
    50   24   27 1    
    51   27   32 ar   
    52   27   28 ar   
    53   28   29 ar   
    54   28   55 1    
    55   29   30 ar   
    56   29   56 1    
    57   30   31 ar   
    58   30   57 1    
    59   31   32 ar   
    60   31   58 1    
    61   32   59 1    
    62   33   60 1    
    63   33   61 1    
    64   33   62 1    
@<TRIPOS>SUBSTRUCTURE
     1 <0>         1 GROUP             0       ****    0 ROOT    
@<TRIPOS>MOLECULE
ZINC22373992
56   58    1
SMALL
USER_CHARGES


@<TRIPOS>ATOM
      1 C1         13.1129   13.5770    4.0016 C.3       1 <0>        -0.1260 
      2 C2         11.8573   13.1310    3.2648 C.ar      1 <0>        -0.0726 
      3 C3         11.9788   12.2580    2.1816 C.ar      1 <0>        -0.1245 
      4 C4         10.8494   11.8321    1.4876 C.ar      1 <0>        -0.1301 
      5 C5          9.5780   12.2809    1.8544 C.ar      1 <0>        -0.1010 
      6 C6          9.4535   13.1452    2.9468 C.ar      1 <0>        -0.1085 
      7 C7         10.5810   13.5688    3.6591 C.ar      1 <0>        -0.0741 
      8 C8         10.3951   14.4812    4.8612 C.3       1 <0>        -0.1253 
      9 C9          8.3475   11.8524    1.0567 C.3       1 <0>         0.2023 
     10 H1          7.4842   12.3693    1.4832 H         1 <0>         0.1058 
     11 C10         8.4597   12.2825   -0.4241 C.3       1 <0>        -0.1888 
     12 N1          8.1177   10.4187    1.2293 N.am      1 <0>        -0.5769 
     13 C11         7.0448    9.7286    0.8119 C.2       1 <0>         0.5072 
     14 O1          6.1199   10.2506    0.1863 O.2       1 <0>        -0.5033 
     15 C12         7.0478    8.2296    1.1645 C.3       1 <0>        -0.0327 
     16 N2          5.8258    7.5439    0.8056 N.pl3     1 <0>        -0.2378 
     17 C13         4.7529    7.5559    1.7100 C.ar      1 <0>         0.0347 
     18 C14         4.7014    6.6361    2.7616 C.ar      1 <0>        -0.0578 
     19 C15         3.6300    6.6494    3.6556 C.ar      1 <0>        -0.1465 
     20 C16         2.6017    7.5795    3.5010 C.ar      1 <0>         0.1886 
     21 C17         2.6519    8.5063    2.4545 C.ar      1 <0>         0.0358 
     22 C18         3.7272    8.4934    1.5644 C.ar      1 <0>        -0.1107 
     23 Cl1         1.3930    9.6725    2.2487 Cl        1 <0>        -0.1296 
     24 F1          1.5603    7.5723    4.3643 F         1 <0>        -0.1662 
     25 S1          5.8549    6.3242   -0.4939 S.o2      1 <0>         0.8671 
     26 O2          4.5235    5.7090   -0.5561 O.2       1 <0>        -0.4759 
     27 O3          6.4547    6.9758   -1.6638 O.2       1 <0>        -0.4759 
     28 C19         7.0081    5.0586    0.0437 C.ar      1 <0>        -0.1942 
     29 C20         8.3412    5.1023   -0.3763 C.ar      1 <0>        -0.0293 
     30 C21         9.2250    4.1049    0.0252 C.ar      1 <0>        -0.1469 
     31 C22         8.7838    3.0883    0.8693 C.ar      1 <0>        -0.0733 
     32 C23         7.4613    3.0549    1.3099 C.ar      1 <0>        -0.1469 
     33 C24         6.5703    4.0424    0.8963 C.ar      1 <0>        -0.0293 
     34 H2         14.0226   13.1856    3.5430 H         1 <0>         0.0702 
     35 H3         13.0829   13.2430    5.0399 H         1 <0>         0.0702 
     36 H4         13.1822   14.6658    4.0071 H         1 <0>         0.0702 
     37 H5         12.9497   11.8986    1.8718 H         1 <0>         0.1313 
     38 H6         10.9667   11.1515    0.6574 H         1 <0>         0.1218 
     39 H7          8.4731   13.4868    3.2460 H         1 <0>         0.1356 
     40 H8          9.3429   14.6323    5.1029 H         1 <0>         0.0709 
     41 H9         10.8592   15.4499    4.6794 H         1 <0>         0.0709 
     42 H10        10.8696   14.0430    5.7391 H         1 <0>         0.0709 
     43 H11         7.5247   12.1270   -0.9626 H         1 <0>         0.0724 
     44 H12         9.2302   11.7205   -0.9518 H         1 <0>         0.0724 
     45 H13         8.7086   13.3400   -0.5123 H         1 <0>         0.0724 
     46 H14         8.7827    9.9382    1.8195 H         1 <0>         0.2946 
     47 H15         7.9310    7.8148    0.6786 H         1 <0>         0.0635 
     48 H16         7.2309    8.1636    2.2368 H         1 <0>         0.0635 
     49 H17         5.4967    5.9154    2.8879 H         1 <0>         0.1632 
     50 H18         3.5991    5.9431    4.4743 H         1 <0>         0.1605 
     51 H19         3.7613    9.2103    0.7558 H         1 <0>         0.1459 
     52 H20         8.6913    5.8924   -1.0259 H         1 <0>         0.1513 
     53 H21        10.2477    4.1131   -0.3224 H         1 <0>         0.1411 
     54 H22         9.4755    2.3184    1.1798 H         1 <0>         0.1372 
     55 H23         7.1287    2.2635    1.9663 H         1 <0>         0.1411 
     56 H24         5.5427    4.0105    1.2290 H         1 <0>         0.1513 
@<TRIPOS>BOND
     1    1    2 1    
     2    1   34 1    
     3    1   35 1    
     4    1   36 1    
     5    2    7 ar   
     6    2    3 ar   
     7    3    4 ar   
     8    3   37 1    
     9    4    5 ar   
    10    4   38 1    
    11    5    6 ar   
    12    5    9 1    
    13    6    7 ar   
    14    6   39 1    
    15    7    8 1    
    16    8   40 1    
    17    8   41 1    
    18    8   42 1    
    19    9   10 1    
    20    9   11 1    
    21    9   12 1    
    22   11   43 1    
    23   11   44 1    
    24   11   45 1    
    25   12   13 am   BACKBONE|DICT|INTERRES
    26   12   46 1    
    27   13   14 2    
    28   13   15 1    
    29   15   16 1    
    30   15   47 1    
    31   15   48 1    
    32   16   17 1    
    33   16   25 1    
    34   17   22 ar   
    35   17   18 ar   
    36   18   19 ar   
    37   18   49 1    
    38   19   20 ar   
    39   19   50 1    
    40   20   21 ar   
    41   20   24 1    
    42   21   22 ar   
    43   21   23 1    
    44   22   51 1    
    45   25   26 2    
    46   25   27 2    
    47   25   28 1    
    48   28   33 ar   
    49   28   29 ar   
    50   29   30 ar   
    51   29   52 1    
    52   30   31 ar   
    53   30   53 1    
    54   31   32 ar   
    55   31   54 1    
    56   32   33 ar   
    57   32   55 1    
    58   33   56 1    
@<TRIPOS>SUBSTRUCTURE
     1 <0>         1 GROUP             0       ****    0 ROOT    
@<TRIPOS>MOLECULE
ZINC22533455
48   49    1
SMALL
USER_CHARGES


@<TRIPOS>ATOM
      1 C1         22.2938   15.8548    5.4653 C.3       1 <0>        -0.2223 
      2 C2         20.9827   16.2426    6.1411 C.3       1 <0>         0.1579 
      3 O1         19.8789   15.6993    5.4233 O.3       1 <0>        -0.3267 
      4 C3         18.6563   16.2880    5.4727 C.2       1 <0>         0.6274 
      5 O2         18.4309   17.3545    6.0519 O.2       1 <0>        -0.4239 
      6 C4         17.5801   15.4796    4.8216 C.ar      1 <0>        -0.2681 
      7 C5         16.2425   15.8128    5.0729 C.ar      1 <0>        -0.0681 
      8 C6         15.2097   15.1049    4.4639 C.ar      1 <0>        -0.1292 
      9 C7         15.4880   14.0228    3.6165 C.ar      1 <0>         0.0790 
     10 C8         16.8248   13.6600    3.3861 C.ar      1 <0>         0.0591 
     11 C9         17.8589   14.3982    3.9692 C.ar      1 <0>        -0.0626 
     12 Cl1        17.2317   12.2543    2.4628 Cl        1 <0>        -0.1331 
     13 N1         14.4604   13.2893    2.9975 N.am      1 <0>        -0.4117 
     14 C10        13.2554   12.9824    3.5210 C.2       1 <0>         0.4792 
     15 O3         12.9083   13.2620    4.6705 O.2       1 <0>        -0.4727 
     16 C11        12.2811   12.2524    2.5931 C.3       1 <0>         0.1150 
     17 O4         11.0205   12.9113    2.6801 O.3       1 <0>        -0.3314 
     18 C12         9.9163   12.3576    2.0650 C.ar      1 <0>         0.1375 
     19 C13         9.9495   11.1776    1.3048 C.ar      1 <0>        -0.1568 
     20 C14         8.7845   10.6750    0.7290 C.ar      1 <0>        -0.1038 
     21 C15         7.5651   11.3390    0.8958 C.ar      1 <0>        -0.0785 
     22 C16         7.5329   12.5220    1.6403 C.ar      1 <0>        -0.0864 
     23 C17         8.6974   13.0288    2.2179 C.ar      1 <0>        -0.0044 
     24 Br1         8.6065   14.6534    3.2153 Br        1 <0>        -0.0959 
     25 C18         6.2825   10.7767    0.2824 C.3       1 <0>        -0.0391 
     26 C19         6.3539   10.7275   -1.2552 C.3       1 <0>        -0.1677 
     27 C20         5.9204    9.4041    0.8807 C.3       1 <0>        -0.1677 
     28 H1         23.1451   16.1824    6.0637 H         1 <0>         0.0747 
     29 H2         22.3693   16.3289    4.4873 H         1 <0>         0.0747 
     30 H3         22.3764   14.7739    5.3404 H         1 <0>         0.0747 
     31 H4         20.9663   15.8536    7.1601 H         1 <0>         0.0474 
     32 H5         20.9290   17.3313    6.2031 H         1 <0>         0.0474 
     33 H6         15.9844   16.6357    5.7266 H         1 <0>         0.1558 
     34 H7         14.1923   15.4098    4.6609 H         1 <0>         0.1527 
     35 H8         18.8796   14.1034    3.7658 H         1 <0>         0.1691 
     36 H9         14.6738   12.9304    2.0794 H         1 <0>         0.3044 
     37 H10        12.6425   12.2478    1.5631 H         1 <0>         0.0535 
     38 H11        12.2052   11.2200    2.9360 H         1 <0>         0.0535 
     39 H12        10.8667   10.6271    1.1564 H         1 <0>         0.1417 
     40 H13         8.8318    9.7582    0.1597 H         1 <0>         0.1372 
     41 H14         6.6016   13.0515    1.7791 H         1 <0>         0.1496 
     42 H15         5.4654   11.4542    0.5366 H         1 <0>         0.0738 
     43 H16         5.3997   10.4193   -1.6839 H         1 <0>         0.0641 
     44 H17         7.1110   10.0235   -1.6026 H         1 <0>         0.0641 
     45 H18         6.5980   11.7058   -1.6715 H         1 <0>         0.0641 
     46 H19         4.9522    9.0581    0.5173 H         1 <0>         0.0641 
     47 H20         5.8632    9.4502    1.9697 H         1 <0>         0.0641 
     48 H21         6.6591    8.6436    0.6238 H         1 <0>         0.0641 
@<TRIPOS>BOND
     1    1    2 1    
     2    1   28 1    
     3    1   29 1    
     4    1   30 1    
     5    2    3 1    
     6    2   31 1    
     7    2   32 1    
     8    3    4 1    
     9    4    5 2    
    10    4    6 1    
    11    6   11 ar   
    12    6    7 ar   
    13    7    8 ar   
    14    7   33 1    
    15    8    9 ar   
    16    8   34 1    
    17    9   10 ar   
    18    9   13 1    
    19   10   11 ar   
    20   10   12 1    
    21   11   35 1    
    22   13   14 am   BACKBONE|DICT|INTERRES
    23   13   36 1    
    24   14   15 2    
    25   14   16 1    
    26   16   17 1    
    27   16   37 1    
    28   16   38 1    
    29   17   18 1    
    30   18   23 ar   
    31   18   19 ar   
    32   19   20 ar   
    33   19   39 1    
    34   20   21 ar   
    35   20   40 1    
    36   21   22 ar   
    37   21   25 1    
    38   22   23 ar   
    39   22   41 1    
    40   23   24 1    
    41   25   26 1    
    42   25   27 1    
    43   25   42 1    
    44   26   43 1    
    45   26   44 1    
    46   26   45 1    
    47   27   46 1    
    48   27   47 1    
    49   27   48 1    
@<TRIPOS>SUBSTRUCTURE
     1 <0>         1 GROUP             0       ****    0 ROOT    
@<TRIPOS>MOLECULE
ZINC27828416
62   66    1
SMALL
USER_CHARGES


@<TRIPOS>ATOM
      1 C1          3.7099   12.5498    5.2799 C.ar      1 <0>        -0.1294 
      2 C2          4.1523   12.1584    4.0179 C.ar      1 <0>        -0.1296 
      3 C3          5.5184   12.1087    3.7512 C.ar      1 <0>        -0.1202 
      4 C4          6.4387   12.4569    4.7439 C.ar      1 <0>        -0.0823 
      5 C5          5.9863   12.8529    6.0072 C.ar      1 <0>        -0.1202 
      6 C6          4.6213   12.8976    6.2759 C.ar      1 <0>        -0.1296 
      7 C7          7.9353   12.3707    4.4634 C.3       1 <0>        -0.0948 
      8 C8          8.5448   13.6013    3.7574 C.3       1 <0>         0.2025 
      9 H1          8.3017   14.4466    4.4076 H         1 <0>         0.1088 
     10 C9         10.0760   13.5072    3.6703 C.ar      1 <0>        -0.0932 
     11 C10        10.7091   12.7093    2.7087 C.ar      1 <0>        -0.1184 
     12 C11        12.1019   12.6806    2.6221 C.ar      1 <0>        -0.1138 
     13 C12        12.8938   13.4533    3.4865 C.ar      1 <0>        -0.0342 
     14 C13        12.2463   14.2192    4.4635 C.ar      1 <0>        -0.1138 
     15 C14        10.8585   14.2495    4.5536 C.ar      1 <0>        -0.1184 
     16 C15        14.3899   13.4801    3.3805 C.ar      1 <0>        -0.0443 
     17 C16        15.1101   14.6360    3.7210 C.ar      1 <0>        -0.1136 
     18 C17        16.5015   14.6584    3.6648 C.ar      1 <0>        -0.1310 
     19 C18        17.1950   13.5241    3.2615 C.ar      1 <0>        -0.1256 
     20 C19        16.5046   12.3746    2.8989 C.ar      1 <0>        -0.1310 
     21 C20        15.1107   12.3565    2.9523 C.ar      1 <0>        -0.1136 
     22 N1          7.9364   13.8337    2.4432 N.am      1 <0>        -0.5741 
     23 C21         7.5362   15.0268    1.9799 C.2       1 <0>         0.4898 
     24 O1          7.6161   16.0692    2.6245 O.2       1 <0>        -0.5302 
     25 C22         6.9645   15.0588    0.5694 C.3       1 <0>        -0.1724 
     26 C23         5.4906   15.5127    0.5033 C.3       1 <0>        -0.0822 
     27 N2          5.0643   15.9523   -0.8366 N.am      1 <0>        -0.0355 
     28 C24         4.8756   17.2546   -1.1760 C.2       1 <0>         0.4060 
     29 O2          5.0287   18.2445   -0.4598 O.2       1 <0>        -0.4837 
     30 C25         4.4577   17.2240   -2.6016 C.ar      1 <0>        -0.0796 
     31 C26         4.1330   18.2565   -3.4825 C.ar      1 <0>        -0.0646 
     32 C27         3.7844   17.9289   -4.7983 C.ar      1 <0>        -0.1159 
     33 C28         3.7662   16.5912   -5.2121 C.ar      1 <0>        -0.1159 
     34 C29         4.0922   15.5705   -4.3127 C.ar      1 <0>        -0.0646 
     35 C30         4.4356   15.9173   -3.0057 C.ar      1 <0>        -0.0796 
     36 C31         4.8242   15.0749   -1.8456 C.2       1 <0>         0.4060 
     37 O3          4.9169   13.8481   -1.8034 O.2       1 <0>        -0.4837 
     38 H2          2.6516   12.5734    5.4949 H         1 <0>         0.1287 
     39 H3          3.4400   11.8818    3.2543 H         1 <0>         0.1302 
     40 H4          5.8596   11.7907    2.7772 H         1 <0>         0.1340 
     41 H5          6.6833   13.1034    6.7955 H         1 <0>         0.1340 
     42 H6          4.2758   13.1815    7.2600 H         1 <0>         0.1302 
     43 H7          8.4321   12.2508    5.4235 H         1 <0>         0.0811 
     44 H8          8.1270   11.4585    3.8965 H         1 <0>         0.0811 
     45 H9         10.1253   12.1164    2.0198 H         1 <0>         0.1330 
     46 H10        12.5591   12.0681    1.8579 H         1 <0>         0.1377 
     47 H11        12.8236   14.8001    5.1668 H         1 <0>         0.1377 
     48 H12        10.3963   14.8673    5.3076 H         1 <0>         0.1330 
     49 H13        14.5967   15.5326    4.0344 H         1 <0>         0.1342 
     50 H14        17.0432   15.5518    3.9394 H         1 <0>         0.1319 
     51 H15        18.2750   13.5386    3.2228 H         1 <0>         0.1303 
     52 H16        17.0645   11.5037    2.5965 H         1 <0>         0.1319 
     53 H17        14.5882   11.4536    2.6831 H         1 <0>         0.1342 
     54 H18         7.8484   13.0278    1.8432 H         1 <0>         0.2994 
     55 H19         7.5697   15.7886    0.0363 H         1 <0>         0.0953 
     56 H20         7.1249   14.1426   -0.0017 H         1 <0>         0.0953 
     57 H21         4.8253   14.7605    0.9333 H         1 <0>         0.1091 
     58 H22         5.3741   16.3630    1.1811 H         1 <0>         0.1091 
     59 H23         4.1492   19.2890   -3.1671 H         1 <0>         0.1546 
     60 H24         3.5292   18.7106   -5.4988 H         1 <0>         0.1429 
     61 H25         3.4986   16.3452   -6.2295 H         1 <0>         0.1429 
     62 H26         4.0789   14.5382   -4.6317 H         1 <0>         0.1546 
@<TRIPOS>BOND
     1    1    6 ar   
     2    1    2 ar   
     3    1   38 1    
     4    2    3 ar   
     5    2   39 1    
     6    3    4 ar   
     7    3   40 1    
     8    4    5 ar   
     9    4    7 1    
    10    5    6 ar   
    11    5   41 1    
    12    6   42 1    
    13    7    8 1    
    14    7   43 1    
    15    7   44 1    
    16    8    9 1    
    17    8   10 1    
    18    8   22 1    
    19   10   15 ar   
    20   10   11 ar   
    21   11   12 ar   
    22   11   45 1    
    23   12   13 ar   
    24   12   46 1    
    25   13   14 ar   
    26   13   16 1    
    27   14   15 ar   
    28   14   47 1    
    29   15   48 1    
    30   16   21 ar   
    31   16   17 ar   
    32   17   18 ar   
    33   17   49 1    
    34   18   19 ar   
    35   18   50 1    
    36   19   20 ar   
    37   19   51 1    
    38   20   21 ar   
    39   20   52 1    
    40   21   53 1    
    41   22   23 am   BACKBONE|DICT|INTERRES
    42   22   54 1    
    43   23   24 2    
    44   23   25 1    
    45   25   26 1    
    46   25   55 1    
    47   25   56 1    
    48   26   27 1    
    49   26   57 1    
    50   26   58 1    
    51   27   36 am   BACKBONE|DICT|INTERRES
    52   27   28 am   BACKBONE|DICT|INTERRES
    53   28   29 2    
    54   28   30 1    
    55   30   35 ar   
    56   30   31 ar   
    57   31   32 ar   
    58   31   59 1    
    59   32   33 ar   
    60   32   60 1    
    61   33   34 ar   
    62   33   61 1    
    63   34   35 ar   
    64   34   62 1    
    65   35   36 1    
    66   36   37 2    
@<TRIPOS>SUBSTRUCTURE
     1 <0>         1 GROUP             0       ****    0 ROOT    
@<TRIPOS>MOLECULE
ZINC32529571
62   64    1
SMALL
USER_CHARGES


@<TRIPOS>ATOM
      1 C1          2.9267   12.4651    3.4784 C.3       1 <0>        -0.1770 
      2 C2          3.4001   13.9054    3.2182 C.3       1 <0>        -0.1318 
      3 C3          4.9417   14.0658    3.2037 C.3       1 <0>        -0.0084 
      4 H1          5.3433   13.3239    2.5111 H         1 <0>         0.1202 
      5 C4          5.3408   15.4609    2.6678 C.2       1 <0>         0.4695 
      6 O1          5.7667   16.3292    3.4331 O.2       1 <0>        -0.4996 
      7 N1          5.1698   15.6290    1.3408 N.am      1 <0>        -0.3375 
      8 C5          5.2665   16.7858    0.5635 C.2       1 <0>         0.0294 
      9 C6          5.0585   16.8430   -0.8292 C.2       1 <0>        -0.0388 
     10 C7          5.1082   18.2061   -1.2834 C.2       1 <0>         0.0467 
     11 C8          5.4271   19.1234   -0.2662 C.2       1 <0>        -0.0795 
     12 S1          5.6199   18.3358    1.2535 S.3       1 <0>         0.0942 
     13 C9          5.6192   20.6258   -0.3116 C.3       1 <0>        -0.1784 
     14 C10         4.8488   18.6634   -2.7135 C.3       1 <0>        -0.1853 
     15 C11         4.8307   15.6243   -1.6508 C.2       1 <0>         0.4286 
     16 O2          4.8595   14.4797   -1.1865 O.2       1 <0>        -0.4378 
     17 O3          4.6336   15.8923   -2.9565 O.3       1 <0>        -0.3104 
     18 C12         4.6100   14.8526   -3.9252 C.3       1 <0>         0.1525 
     19 C13         4.0865   15.4213   -5.2473 C.3       1 <0>        -0.2212 
     20 S2          5.6800   13.6887    4.8311 S.3       1 <0>        -0.2474 
     21 C14         7.4287   13.5899    4.6298 C.ar      1 <0>         0.1674 
     22 C15         8.2275   13.8132    5.7391 C.ar      1 <0>        -0.1796 
     23 C16         9.6117   13.7656    5.6017 C.ar      1 <0>        -0.0800 
     24 C17        10.1857   13.4918    4.3201 C.ar      1 <0>         0.0594 
     25 C18        11.5858   13.4538    4.0644 C.ar      1 <0>        -0.1838 
     26 C19        12.0721   12.9580    2.8580 C.ar      1 <0>        -0.0743 
     27 C20        11.1905   12.5823    1.8485 C.ar      1 <0>        -0.1198 
     28 C21         9.8120   12.7104    2.0104 C.ar      1 <0>        -0.1099 
     29 C22         9.2824   13.1787    3.2514 C.ar      1 <0>         0.1229 
     30 N2          7.9291   13.2807    3.4097 N.ar      1 <0>        -0.2179 
     31 C23         8.8781   12.3340    0.8658 C.3       1 <0>        -0.1178 
     32 C24        13.5681   12.7775    2.6661 C.3       1 <0>        -0.1279 
     33 C25        10.4434   13.8498    6.8647 C.3       1 <0>        -0.1338 
     34 H2          1.8385   12.4037    3.4507 H         1 <0>         0.0684 
     35 H3          3.2455   12.1058    4.4577 H         1 <0>         0.0684 
     36 H4          3.3140   11.7758    2.7263 H         1 <0>         0.0684 
     37 H5          2.9733   14.2242    2.2659 H         1 <0>         0.0818 
     38 H6          2.9682   14.5614    3.9765 H         1 <0>         0.0818 
     39 H7          4.9174   14.8072    0.8071 H         1 <0>         0.3021 
     40 H8          4.9416   21.1322    0.3815 H         1 <0>         0.0756 
     41 H9          5.4474   21.0723   -1.2894 H         1 <0>         0.0756 
     42 H10         6.6337   20.8946   -0.0152 H         1 <0>         0.0756 
     43 H11         4.8477   19.7400   -2.8627 H         1 <0>         0.0724 
     44 H12         3.8789   18.3129   -3.0709 H         1 <0>         0.0724 
     45 H13         5.5886   18.2408   -3.3934 H         1 <0>         0.0724 
     46 H14         5.6247   14.4590   -4.0591 H         1 <0>         0.0445 
     47 H15         3.9789   14.0207   -3.5951 H         1 <0>         0.0445 
     48 H16         4.1432   14.6724   -6.0353 H         1 <0>         0.0741 
     49 H17         4.6692   16.2869   -5.5682 H         1 <0>         0.0741 
     50 H18         3.0459   15.7369   -5.1522 H         1 <0>         0.0741 
     51 H19         7.7732   13.9966    6.7039 H         1 <0>         0.1455 
     52 H20        12.2969   13.7182    4.8306 H         1 <0>         0.1326 
     53 H21        11.5808   12.1922    0.9181 H         1 <0>         0.1358 
     54 H22         8.3124   11.4337    1.1178 H         1 <0>         0.0749 
     55 H23         9.4247   12.1508   -0.0597 H         1 <0>         0.0749 
     56 H24         8.1669   13.1377    0.6704 H         1 <0>         0.0749 
     57 H25        13.8104   12.2994    1.7140 H         1 <0>         0.0709 
     58 H26        13.9687   12.1479    3.4618 H         1 <0>         0.0709 
     59 H27        14.0799   13.7389    2.7247 H         1 <0>         0.0709 
     60 H28        11.5209   13.8538    6.7267 H         1 <0>         0.0766 
     61 H29        10.2319   12.9545    7.4383 H         1 <0>         0.0766 
     62 H30        10.1352   14.7088    7.4604 H         1 <0>         0.0766 
@<TRIPOS>BOND
     1    1    2 1    
     2    1   34 1    
     3    1   35 1    
     4    1   36 1    
     5    2    3 1    
     6    2   37 1    
     7    2   38 1    
     8    3    4 1    
     9    3    5 1    
    10    3   20 1    
    11    5    6 2    
    12    5    7 am   BACKBONE|DICT|INTERRES
    13    7    8 am   BACKBONE|DICT|INTERRES
    14    7   39 1    
    15    8   12 1    
    16    8    9 2    
    17    9   10 1    
    18    9   15 1    
    19   10   11 2    
    20   10   14 1    
    21   11   12 1    
    22   11   13 1    
    23   13   40 1    
    24   13   41 1    
    25   13   42 1    
    26   14   43 1    
    27   14   44 1    
    28   14   45 1    
    29   15   16 2    
    30   15   17 1    
    31   17   18 1    
    32   18   19 1    
    33   18   46 1    
    34   18   47 1    
    35   19   48 1    
    36   19   49 1    
    37   19   50 1    
    38   20   21 1    
    39   21   30 ar   
    40   21   22 ar   
    41   22   23 ar   
    42   22   51 1    
    43   23   24 ar   
    44   23   33 1    
    45   24   29 ar   
    46   24   25 ar   
    47   25   26 ar   
    48   25   52 1    
    49   26   27 ar   
    50   26   32 1    
    51   27   28 ar   
    52   27   53 1    
    53   28   29 ar   
    54   28   31 1    
    55   29   30 ar   
    56   31   54 1    
    57   31   55 1    
    58   31   56 1    
    59   32   57 1    
    60   32   58 1    
    61   32   59 1    
    62   33   60 1    
    63   33   61 1    
    64   33   62 1    
@<TRIPOS>SUBSTRUCTURE
     1 <0>         1 GROUP             0       ****    0 ROOT    
@<TRIPOS>MOLECULE
ZINC01932583
62   64    1
SMALL
USER_CHARGES


@<TRIPOS>ATOM
      1 C1          5.3818   14.3401    6.4690 C.3       1 <0>        -0.2212 
      2 C2          6.2397   14.9805    5.3754 C.3       1 <0>         0.1531 
      3 O1          6.7863   13.9572    4.5560 O.3       1 <0>        -0.3132 
      4 C3          7.6363   14.2529    3.5533 C.2       1 <0>         0.4291 
      5 O2          8.0319   15.3841    3.2661 O.2       1 <0>        -0.4382 
      6 C4          8.0747   13.0507    2.8438 C.2       1 <0>        -0.0443 
      7 C5          7.2025   12.0377    2.3454 C.2       1 <0>         0.0422 
      8 C6          7.8731   11.0529    1.6132 C.2       1 <0>        -0.0924 
      9 S1          9.5591   11.3464    1.5199 S.3       1 <0>         0.0925 
     10 C7          9.4243   12.7460    2.5564 C.2       1 <0>         0.0421 
     11 N1         10.5554   13.4223    3.0513 N.am      1 <0>        -0.3565 
     12 C8         11.8584   13.1329    2.8130 C.2       1 <0>         0.4877 
     13 O3         12.2461   12.2538    2.0471 O.2       1 <0>        -0.5191 
     14 C9         12.8099   13.9539    3.5295 C.2       1 <0>        -0.2471 
     15 C10        14.1411   13.8340    3.2966 C.2       1 <0>         0.0431 
     16 C11        15.2559   14.5719    3.9363 C.ar      1 <0>        -0.1394 
     17 C12        15.0078   15.5859    4.8651 C.ar      1 <0>        -0.0762 
     18 C13        16.0560   16.2531    5.4987 C.ar      1 <0>        -0.1695 
     19 C14        17.3724   15.9361    5.1908 C.ar      1 <0>        -0.0809 
     20 C15        17.6390   14.9286    4.2713 C.ar      1 <0>        -0.2094 
     21 C16        16.5916   14.2116    3.6645 C.ar      1 <0>         0.1837 
     22 O4         16.8182   13.1077    2.8639 O.3       1 <0>        -0.3662 
     23 C17        18.0816   12.4594    2.9490 C.3       1 <0>         0.1399 
     24 C18         7.2575    9.7877    1.0293 C.3       1 <0>        -0.1235 
     25 C19         5.7065    9.9137    0.9780 C.3       1 <0>        -0.0685 
     26 H1          5.4590   10.6303    0.1919 H         1 <0>         0.0760 
     27 C20         5.2148   10.4942    2.3304 C.3       1 <0>        -0.1274 
     28 C21         5.6835   11.9475    2.5483 C.3       1 <0>        -0.1398 
     29 C22         4.9937    8.5672    0.5651 C.3       1 <0>        -0.0311 
     30 C23         5.1306    7.4670    1.6496 C.3       1 <0>        -0.1673 
     31 C24         3.4831    8.8105    0.3152 C.3       1 <0>        -0.1673 
     32 C25         5.5914    8.0158   -0.7551 C.3       1 <0>        -0.1673 
     33 H2          4.9309   15.0996    7.1072 H         1 <0>         0.0734 
     34 H3          5.9802   13.6875    7.1059 H         1 <0>         0.0734 
     35 H4          4.5766   13.7411    6.0424 H         1 <0>         0.0734 
     36 H5          5.6334   15.6572    4.7711 H         1 <0>         0.0449 
     37 H6          7.0386   15.5676    5.8302 H         1 <0>         0.0449 
     38 H7         10.3620   14.1968    3.6658 H         1 <0>         0.3008 
     39 H8         12.4120   14.6528    4.2486 H         1 <0>         0.1296 
     40 H9         14.4598   13.1156    2.5520 H         1 <0>         0.1640 
     41 H10        13.9973   15.8538    5.1231 H         1 <0>         0.1373 
     42 H11        15.8525   17.0310    6.2161 H         1 <0>         0.1351 
     43 H12        18.1849   16.4631    5.6691 H         1 <0>         0.1342 
     44 H13        18.6720   14.6917    4.0666 H         1 <0>         0.1359 
     45 H14        18.0272   11.4875    2.4643 H         1 <0>         0.0432 
     46 H15        18.3764   12.2719    3.9826 H         1 <0>         0.0432 
     47 H16        18.8596   13.0499    2.4645 H         1 <0>         0.0432 
     48 H17         7.6698    9.6045    0.0370 H         1 <0>         0.0783 
     49 H18         7.5518    8.9488    1.6601 H         1 <0>         0.0783 
     50 H19         4.1266   10.5116    2.3591 H         1 <0>         0.0692 
     51 H20         5.4968    9.8448    3.1612 H         1 <0>         0.0692 
     52 H21         5.3749   12.2482    3.5477 H         1 <0>         0.0846 
     53 H22         5.1749   12.6149    1.8519 H         1 <0>         0.0846 
     54 H23         4.6405    6.5428    1.3406 H         1 <0>         0.0595 
     55 H24         4.6720    7.7613    2.5936 H         1 <0>         0.0595 
     56 H25         6.1703    7.2139    1.8571 H         1 <0>         0.0595 
     57 H26         2.9975    7.9262   -0.0999 H         1 <0>         0.0595 
     58 H27         3.3178    9.6266   -0.3888 H         1 <0>         0.0595 
     59 H28         2.9426    9.0518    1.2301 H         1 <0>         0.0595 
     60 H29         5.0324    7.1541   -1.1222 H         1 <0>         0.0595 
     61 H30         6.6220    7.6820   -0.6318 H         1 <0>         0.0595 
     62 H31         5.5809    8.7681   -1.5445 H         1 <0>         0.0595 
@<TRIPOS>BOND
     1    1    2 1    
     2    1   33 1    
     3    1   34 1    
     4    1   35 1    
     5    2    3 1    
     6    2   36 1    
     7    2   37 1    
     8    3    4 1    
     9    4    5 2    
    10    4    6 1    
    11    6   10 2    
    12    6    7 1    
    13    7   28 1    
    14    7    8 2    
    15    8    9 1    
    16    8   24 1    
    17    9   10 1    
    18   10   11 am   BACKBONE|DICT|INTERRES
    19   11   12 am   BACKBONE|DICT|INTERRES
    20   11   38 1    
    21   12   13 2    
    22   12   14 1    
    23   14   15 2    
    24   14   39 1    
    25   15   16 1    
    26   15   40 1    
    27   16   21 ar   
    28   16   17 ar   
    29   17   18 ar   
    30   17   41 1    
    31   18   19 ar   
    32   18   42 1    
    33   19   20 ar   
    34   19   43 1    
    35   20   21 ar   
    36   20   44 1    
    37   21   22 1    
    38   22   23 1    
    39   23   45 1    
    40   23   46 1    
    41   23   47 1    
    42   24   25 1    
    43   24   48 1    
    44   24   49 1    
    45   25   26 1    
    46   25   27 1    
    47   25   29 1    
    48   27   28 1    
    49   27   50 1    
    50   27   51 1    
    51   28   52 1    
    52   28   53 1    
    53   29   30 1    
    54   29   31 1    
    55   29   32 1    
    56   30   54 1    
    57   30   55 1    
    58   30   56 1    
    59   31   57 1    
    60   31   58 1    
    61   31   59 1    
    62   32   60 1    
    63   32   61 1    
    64   32   62 1    
@<TRIPOS>SUBSTRUCTURE
     1 <0>         1 GROUP             0       ****    0 ROOT    
@<TRIPOS>MOLECULE
ZINC08858804
58   61    1
SMALL
USER_CHARGES


@<TRIPOS>ATOM
      1 C1         16.4583   14.8343    4.0206 C.3       1 <0>        -0.1704 
      2 C2         14.9530   14.6458    4.2865 C.3       1 <0>        -0.0815 
      3 C3         14.2104   15.9929    4.3040 C.3       1 <0>        -0.1704 
      4 C4         14.3459   13.6105    3.3077 C.3       1 <0>        -0.1754 
      5 C5         12.8251   13.4770    3.4368 C.3       1 <0>         0.1966 
      6 O1         12.2936   12.5690    2.4813 O.3       1 <0>        -0.3732 
      7 C6         10.9237   12.3863    2.4641 C.ar      1 <0>         0.1749 
      8 C7         10.4318   11.3713    1.6483 C.ar      1 <0>        -0.1879 
      9 C8          9.0732   11.0604    1.6461 C.ar      1 <0>        -0.0677 
     10 C9          8.1822   11.7682    2.4632 C.ar      1 <0>        -0.0656 
     11 C10         8.6698   12.8308    3.2330 C.ar      1 <0>        -0.0677 
     12 C11        10.0233   13.1355    3.2377 C.ar      1 <0>        -0.1879 
     13 C12         6.7852   11.3274    2.5757 C.2       1 <0>         0.1229 
     14 N1          5.9380   11.9175    3.3145 N.2       1 <0>        -0.2174 
     15 N2          4.6816   11.3195    3.4795 N.pl3     1 <0>        -0.6403 
     16 C13         3.6134   11.8417    4.2818 C.2       1 <0>         0.5658 
     17 N3          2.4808   11.2765    4.4601 N.2       1 <0>        -0.5233 
     18 C14         2.2315    9.9761    4.0061 C.ar      1 <0>         0.2295 
     19 C15         1.5798    9.7561    2.7881 C.ar      1 <0>        -0.1277 
     20 C16         1.3871    8.4619    2.3091 C.ar      1 <0>        -0.1203 
     21 C17         1.8571    7.3776    3.0450 C.ar      1 <0>        -0.1452 
     22 C18         2.5172    7.5777    4.2535 C.ar      1 <0>        -0.1203 
     23 C19         2.7056    8.8729    4.7258 C.ar      1 <0>        -0.1277 
     24 C20         3.8645   13.1295    4.9395 C.2       1 <0>        -0.0033 
     25 N4          4.8160   13.2955    5.8220 N.2       1 <0>        -0.2575 
     26 C21         4.8499   14.5715    6.2860 C.ar      1 <0>         0.4741 
     27 C22         5.7574   15.0523    7.2407 C.ar      1 <0>        -0.4100 
     28 C23         5.6826   16.3960    7.6103 C.ar      1 <0>        -0.0056 
     29 C24         4.7319   17.2488    7.0488 C.ar      1 <0>        -0.2717 
     30 C25         3.8101   16.7913    6.1052 C.ar      1 <0>        -0.1305 
     31 C26         3.8757   15.4428    5.7283 C.ar      1 <0>        -0.1287 
     32 S1          2.8782   14.5369    4.5953 S.3       1 <0>        -0.0249 
     33 H1         16.9940   13.8850    4.0626 H         1 <0>         0.0615 
     34 H2         16.9127   15.4954    4.7595 H         1 <0>         0.0615 
     35 H3         16.6378   15.2667    3.0359 H         1 <0>         0.0615 
     36 H4         14.8325   14.2534    5.2949 H         1 <0>         0.0694 
     37 H5         13.2392   15.8865    4.7867 H         1 <0>         0.0615 
     38 H6         14.0322   16.3754    3.3003 H         1 <0>         0.0615 
     39 H7         14.7651   16.7465    4.8647 H         1 <0>         0.0615 
     40 H8         14.5966   13.8722    2.2802 H         1 <0>         0.0807 
     41 H9         14.8002   12.6340    3.4827 H         1 <0>         0.0807 
     42 H10        12.5681   13.1553    4.4483 H         1 <0>         0.0354 
     43 H11        12.3734   14.4499    3.2624 H         1 <0>         0.0354 
     44 H12        11.1174   10.7838    1.0546 H         1 <0>         0.1414 
     45 H13         8.7350   10.2254    1.0479 H         1 <0>         0.1428 
     46 H14         8.0114   13.3958    3.8779 H         1 <0>         0.1428 
     47 H15        10.3502   13.9345    3.8827 H         1 <0>         0.1414 
     48 H16         6.5338   10.4319    2.0112 H         1 <0>         0.0572 
     49 H17         4.5618   10.4299    3.0182 H         1 <0>         0.3582 
     50 H18         1.2253   10.5977    2.2112 H         1 <0>         0.1343 
     51 H19         0.8814    8.3016    1.3683 H         1 <0>         0.1297 
     52 H20         1.7115    6.3732    2.6753 H         1 <0>         0.1263 
     53 H21         2.8868    6.7388    4.8249 H         1 <0>         0.1297 
     54 H22         3.2201    9.0249    5.6645 H         1 <0>         0.1343 
     55 H23         6.4776   14.3839    7.6906 H         1 <0>         0.2205 
     56 H24         6.3679   16.7859    8.3485 H         1 <0>         0.1336 
     57 H25         4.7045   18.2829    7.3621 H         1 <0>         0.1711 
     58 H26         3.0663   17.4528    5.6850 H         1 <0>         0.2042 
@<TRIPOS>BOND
     1    1    2 1    
     2    1   33 1    
     3    1   34 1    
     4    1   35 1    
     5    2    3 1    
     6    2    4 1    
     7    2   36 1    
     8    3   37 1    
     9    3   38 1    
    10    3   39 1    
    11    4    5 1    
    12    4   40 1    
    13    4   41 1    
    14    5    6 1    
    15    5   42 1    
    16    5   43 1    
    17    6    7 1    
    18    7   12 ar   
    19    7    8 ar   
    20    8    9 ar   
    21    8   44 1    
    22    9   10 ar   
    23    9   45 1    
    24   10   11 ar   
    25   10   13 1    
    26   11   12 ar   
    27   11   46 1    
    28   12   47 1    
    29   13   14 2    
    30   13   48 1    
    31   14   15 1    
    32   15   16 1    
    33   15   49 1    
    34   16   17 2    
    35   16   24 1    
    36   17   18 1    
    37   18   23 ar   
    38   18   19 ar   
    39   19   20 ar   
    40   19   50 1    
    41   20   21 ar   
    42   20   51 1    
    43   21   22 ar   
    44   21   52 1    
    45   22   23 ar   
    46   22   53 1    
    47   23   54 1    
    48   24   32 1    
    49   24   25 2    
    50   25   26 1    
    51   26   31 ar   
    52   26   27 ar   
    53   27   28 ar   
    54   27   55 1    
    55   28   29 ar   
    56   28   56 1    
    57   29   30 ar   
    58   29   57 1    
    59   30   31 ar   
    60   30   58 1    
    61   31   32 1    
@<TRIPOS>SUBSTRUCTURE
     1 <0>         1 GROUP             0       ****    0 ROOT    
@<TRIPOS>MOLECULE
ZINC35700270
60   63    1
SMALL
USER_CHARGES


@<TRIPOS>ATOM
      1 C1          3.4810   17.4877    6.4255 C.3       1 <0>        -0.1714 
      2 C2          4.1400   16.6067    5.3557 C.3       1 <0>        -0.1310 
      3 C3          4.6680   17.4203    4.1568 C.3       1 <0>        -0.1198 
      4 C4          5.3391   16.5643    3.0513 C.3       1 <0>         0.0045 
      5 H1          4.6265   15.7823    2.7830 H         1 <0>         0.1527 
      6 C5          5.6259   17.4232    1.8058 C.2       1 <0>         0.5014 
      7 O1          6.3984   18.3799    1.8772 O.2       1 <0>        -0.5115 
      8 N1          4.9671   17.0672    0.6894 N.am      1 <0>        -0.5610 
      9 C6          5.0265   17.6802   -0.6391 C.3       1 <0>         0.1961 
     10 H2          6.0548   17.5686   -0.9852 H         1 <0>         0.1053 
     11 C7          4.6805   19.1843   -0.6466 C.3       1 <0>        -0.1865 
     12 C8          4.1184   16.9224   -1.6116 C.ar      1 <0>        -0.1004 
     13 C9          2.7967   16.6142   -1.2622 C.ar      1 <0>        -0.1121 
     14 C10         1.9885   15.8964   -2.1397 C.ar      1 <0>        -0.1294 
     15 C11         2.4997   15.4845   -3.3680 C.ar      1 <0>        -0.1239 
     16 C12         3.8103   15.7880   -3.7279 C.ar      1 <0>        -0.1294 
     17 C13         4.6160   16.5081   -2.8510 C.ar      1 <0>        -0.1121 
     18 S1          6.8313   15.7046    3.6655 S.3       1 <0>        -0.1919 
     19 C14         7.1696   14.3686    2.4635 C.ar      1 <0>         0.4778 
     20 N2          6.4767   14.3580    1.3828 N.2       1 <0>        -0.8501 
     21 C15         6.7519   13.4470    0.3621 C.ar      1 <0>         0.7977 
     22 C16         6.0100   13.5305   -0.8132 C.ar      1 <0>        -0.4151 
     23 C17         6.2795   12.6540   -1.8660 C.ar      1 <0>        -0.0316 
     24 C18         7.2830   11.6919   -1.7337 C.ar      1 <0>        -0.2730 
     25 C19         8.0196   11.5958   -0.5519 C.ar      1 <0>         0.0326 
     26 C20         7.7482   12.4840    0.4944 C.ar      1 <0>        -0.5066 
     27 C21         8.5184   12.4175    1.7924 C.ar      1 <0>         0.7705 
     28 O2          9.3811   11.5586    1.9997 O.2       1 <0>        -0.5681 
     29 N3          8.1477   13.3967    2.7031 N.pl3     1 <0>        -0.1313 
     30 C22         8.8454   13.4060    3.9458 C.ar      1 <0>        -0.1290 
     31 C23         8.1412   13.1837    5.1428 C.ar      1 <0>        -0.0750 
     32 C24         8.7793   13.3133    6.3747 C.ar      1 <0>        -0.1411 
     33 C25        10.1293   13.6563    6.4221 C.ar      1 <0>        -0.0904 
     34 C26        10.8460   13.8536    5.2430 C.ar      1 <0>        -0.1667 
     35 C27        10.2181   13.7106    4.0088 C.ar      1 <0>         0.2032 
     36 F1         10.9526   13.8620    2.8836 F         1 <0>        -0.1716 
     37 H3          2.6285   18.0342    6.0211 H         1 <0>         0.0614 
     38 H4          3.1212   16.8829    7.2585 H         1 <0>         0.0614 
     39 H5          4.1865   18.2160    6.8279 H         1 <0>         0.0614 
     40 H6          4.9530   16.0469    5.8190 H         1 <0>         0.0745 
     41 H7          3.4201   15.8638    5.0092 H         1 <0>         0.0745 
     42 H8          3.8299   17.9775    3.7329 H         1 <0>         0.0766 
     43 H9          5.3764   18.1687    4.5195 H         1 <0>         0.0766 
     44 H10         4.5441   16.1509    0.7023 H         1 <0>         0.2978 
     45 H11         4.7202   19.5906   -1.6580 H         1 <0>         0.0726 
     46 H12         3.6791   19.3651   -0.2539 H         1 <0>         0.0726 
     47 H13         5.3807   19.7641   -0.0452 H         1 <0>         0.0726 
     48 H14         2.3956   16.9294   -0.3098 H         1 <0>         0.1295 
     49 H15         0.9709   15.6574   -1.8678 H         1 <0>         0.1317 
     50 H16         1.8740   14.9243   -4.0473 H         1 <0>         0.1305 
     51 H17         4.2025   15.4641   -4.6810 H         1 <0>         0.1317 
     52 H18         5.6316   16.7335   -3.1376 H         1 <0>         0.1295 
     53 H19         5.2393   14.2786   -0.9145 H         1 <0>         0.1950 
     54 H20         5.7176   12.7258   -2.7856 H         1 <0>         0.1505 
     55 H21         7.4960   11.0194   -2.5524 H         1 <0>         0.1658 
     56 H22         8.7929   10.8433   -0.4640 H         1 <0>         0.1383 
     57 H23         7.0895   12.9336    5.1221 H         1 <0>         0.1505 
     58 H24         8.2202   13.1467    7.2859 H         1 <0>         0.1423 
     59 H25        10.6363   13.7581    7.3675 H         1 <0>         0.1402 
     60 H26        11.8981   14.0945    5.2784 H         1 <0>         0.1507 
@<TRIPOS>BOND
     1    1    2 1    
     2    1   37 1    
     3    1   38 1    
     4    1   39 1    
     5    2    3 1    
     6    2   40 1    
     7    2   41 1    
     8    3    4 1    
     9    3   42 1    
    10    3   43 1    
    11    4    5 1    
    12    4    6 1    
    13    4   18 1    
    14    6    7 2    
    15    6    8 am   BACKBONE|DICT|INTERRES
    16    8    9 1    
    17    8   44 1    
    18    9   10 1    
    19    9   11 1    
    20    9   12 1    
    21   11   45 1    
    22   11   46 1    
    23   11   47 1    
    24   12   17 ar   
    25   12   13 ar   
    26   13   14 ar   
    27   13   48 1    
    28   14   15 ar   
    29   14   49 1    
    30   15   16 ar   
    31   15   50 1    
    32   16   17 ar   
    33   16   51 1    
    34   17   52 1    
    35   18   19 1    
    36   19   29 ar   
    37   19   20 ar   
    38   20   21 ar   
    39   21   26 ar   
    40   21   22 ar   
    41   22   23 ar   
    42   22   53 1    
    43   23   24 ar   
    44   23   54 1    
    45   24   25 ar   
    46   24   55 1    
    47   25   26 ar   
    48   25   56 1    
    49   26   27 ar   
    50   27   28 2    
    51   27   29 ar   
    52   29   30 1    
    53   30   35 ar   
    54   30   31 ar   
    55   31   32 ar   
    56   31   57 1    
    57   32   33 ar   
    58   32   58 1    
    59   33   34 ar   
    60   33   59 1    
    61   34   35 ar   
    62   34   60 1    
    63   35   36 1    
@<TRIPOS>SUBSTRUCTURE
     1 <0>         1 GROUP             0       ****    0 ROOT    
@<TRIPOS>MOLECULE
ZINC00856369
66   70    1
SMALL
USER_CHARGES


@<TRIPOS>ATOM
      1 C1         14.4242   13.5853    4.7050 C.3       1 <0>        -0.1372 
      2 C2         12.9149   13.5681    4.5347 C.ar      1 <0>        -0.0256 
      3 C3         12.4014   13.5387    3.2504 C.ar      1 <0>        -0.1482 
      4 C4         11.0480   13.7559    3.0532 C.ar      1 <0>        -0.0270 
      5 C5         10.1957   13.9475    4.1259 C.ar      1 <0>        -0.1922 
      6 C6         10.6855   13.8488    5.4265 C.ar      1 <0>        -0.0270 
      7 C7         12.0541   13.6611    5.6314 C.ar      1 <0>        -0.1482 
      8 S1          8.4799   14.3168    3.7943 S.o2      1 <0>         0.8808 
      9 O1          7.8364   14.6491    5.0792 O.2       1 <0>        -0.5003 
     10 O2          8.4393   15.2817    2.6925 O.2       1 <0>        -0.5003 
     11 N1          7.8045   12.8143    3.1995 N.pl3     1 <0>        -0.2627 
     12 C8          7.4091   11.8248    4.2167 C.3       1 <0>        -0.1127 
     13 C9          5.9236   11.9004    4.5579 C.3       1 <0>         0.1964 
     14 H1          5.3666   11.5105    3.7038 H         1 <0>         0.0971 
     15 C10         5.5868   11.0413    5.7891 C.3       1 <0>        -0.0774 
     16 N2          4.1459   10.9162    5.8671 N.pl3     1 <0>         0.0349 
     17 C11         3.3112   11.7832    6.5544 C.ar      1 <0>        -0.0467 
     18 C12         3.6051   12.8362    7.4254 C.ar      1 <0>        -0.1461 
     19 C13         2.5346   13.5455    7.9589 C.ar      1 <0>        -0.1006 
     20 C14         1.2197   13.2347    7.6271 C.ar      1 <0>        -0.1637 
     21 C15         0.9300   12.1969    6.7394 C.ar      1 <0>        -0.0746 
     22 C16         1.9868   11.4520    6.1938 C.ar      1 <0>        -0.0759 
     23 C17         2.0397   10.3512    5.3133 C.ar      1 <0>        -0.0759 
     24 C18         3.3983   10.0104    5.1333 C.ar      1 <0>        -0.0467 
     25 C19         3.7946    8.9457    4.3056 C.ar      1 <0>        -0.1461 
     26 C20         2.7868    8.2173    3.6805 C.ar      1 <0>        -0.1006 
     27 C21         1.4453    8.5369    3.8376 C.ar      1 <0>        -0.1637 
     28 C22         1.0543    9.6040    4.6522 C.ar      1 <0>        -0.0746 
     29 O3          5.4787   13.2357    4.7405 O.3       1 <0>        -0.6480 
     30 C23         8.0033   12.4205    1.7672 C.3       1 <0>         0.0307 
     31 C24         6.6569   11.9541    1.1670 C.3       1 <0>        -0.1549 
     32 C25         6.8381   11.6759   -0.3398 C.3       1 <0>        -0.1271 
     33 C26         7.9711   10.6548   -0.5953 C.3       1 <0>        -0.1314 
     34 C27         9.2831   11.0427    0.1306 C.3       1 <0>        -0.1271 
     35 C28         9.0396   11.2847    1.6315 C.3       1 <0>        -0.1549 
     36 H2         14.8256   12.5804    4.8591 H         1 <0>         0.0766 
     37 H3         14.9155   14.0144    3.8239 H         1 <0>         0.0766 
     38 H4         14.6884   14.2488    5.5375 H         1 <0>         0.0766 
     39 H5         13.0759   13.4311    2.4239 H         1 <0>         0.1390 
     40 H6         10.6680   13.8092    2.0534 H         1 <0>         0.1472 
     41 H7         10.0361   13.9804    6.2824 H         1 <0>         0.1472 
     42 H8         12.4462   13.6774    6.6390 H         1 <0>         0.1390 
     43 H9          7.6067   10.8419    3.8219 H         1 <0>         0.0912 
     44 H10         8.0246   11.9290    5.1036 H         1 <0>         0.0912 
     45 H11         6.0162   10.0400    5.7027 H         1 <0>         0.0906 
     46 H12         5.9789   11.4747    6.7133 H         1 <0>         0.0906 
     47 H13         4.6153   13.0963    7.6963 H         1 <0>         0.1398 
     48 H14         2.7299   14.3519    8.6448 H         1 <0>         0.1286 
     49 H15         0.4219   13.8038    8.0700 H         1 <0>         0.1286 
     50 H16        -0.0878   11.9565    6.4876 H         1 <0>         0.1326 
     51 H17         4.8303    8.6846    4.1666 H         1 <0>         0.1398 
     52 H18         3.0571    7.3787    3.0489 H         1 <0>         0.1286 
     53 H19         0.6959    7.9475    3.3350 H         1 <0>         0.1286 
     54 H20         0.0206    9.8457    4.7762 H         1 <0>         0.1326 
     55 H21         6.1707   13.7326    5.1981 H         1 <0>         0.4321 
     56 H22         8.3508   13.2719    1.1922 H         1 <0>         0.1048 
     57 H23         6.3028   11.0543    1.6534 H         1 <0>         0.0766 
     58 H24         5.8883   12.7190    1.3252 H         1 <0>         0.0766 
     59 H25         5.9049   11.3112   -0.7655 H         1 <0>         0.0686 
     60 H26         7.0655   12.6079   -0.8649 H         1 <0>         0.0686 
     61 H27         7.6578    9.6679   -0.2604 H         1 <0>         0.0673 
     62 H28         8.1586   10.5641   -1.6654 H         1 <0>         0.0673 
     63 H29        10.0212   10.2544    0.0069 H         1 <0>         0.0686 
     64 H30         9.6833   11.9397   -0.3285 H         1 <0>         0.0686 
     65 H31         9.9682   11.5097    2.1502 H         1 <0>         0.0766 
     66 H32         8.6708   10.3561    2.0635 H         1 <0>         0.0766 
@<TRIPOS>BOND
     1    1    2 1    
     2    1   36 1    
     3    1   37 1    
     4    1   38 1    
     5    2    7 ar   
     6    2    3 ar   
     7    3    4 ar   
     8    3   39 1    
     9    4    5 ar   
    10    4   40 1    
    11    5    6 ar   
    12    5    8 1    
    13    6    7 ar   
    14    6   41 1    
    15    7   42 1    
    16    8    9 2    
    17    8   10 2    
    18    8   11 1    
    19   11   12 1    
    20   11   30 1    
    21   12   13 1    
    22   12   43 1    
    23   12   44 1    
    24   13   14 1    
    25   13   15 1    
    26   13   29 1    
    27   15   16 1    
    28   15   45 1    
    29   15   46 1    
    30   16   24 ar   
    31   16   17 ar   
    32   17   22 ar   
    33   17   18 ar   
    34   18   19 ar   
    35   18   47 1    
    36   19   20 ar   
    37   19   48 1    
    38   20   21 ar   
    39   20   49 1    
    40   21   22 ar   
    41   21   50 1    
    42   22   23 ar   
    43   23   28 ar   
    44   23   24 ar   
    45   24   25 ar   
    46   25   26 ar   
    47   25   51 1    
    48   26   27 ar   
    49   26   52 1    
    50   27   28 ar   
    51   27   53 1    
    52   28   54 1    
    53   29   55 1    
    54   30   35 1    
    55   30   31 1    
    56   30   56 1    
    57   31   32 1    
    58   31   57 1    
    59   31   58 1    
    60   32   33 1    
    61   32   59 1    
    62   32   60 1    
    63   33   34 1    
    64   33   61 1    
    65   33   62 1    
    66   34   35 1    
    67   34   63 1    
    68   34   64 1    
    69   35   65 1    
    70   35   66 1    
@<TRIPOS>SUBSTRUCTURE
     1 <0>         1 GROUP             0       ****    0 ROOT    
@<TRIPOS>MOLECULE
ZINC36553444
64   66    1
SMALL
USER_CHARGES


@<TRIPOS>ATOM
      1 C1          6.4888   11.3604    5.6930 C.3       1 <0>        -0.1302 
      2 C2          5.5931   11.2227    4.4625 C.2       1 <0>        -0.1262 
      3 C3          4.9023   10.1001    4.1817 C.2       1 <0>        -0.1862 
      4 C4          5.4425   12.4068    3.6242 C.2       1 <0>         0.4770 
      5 O1          4.3083   12.8011    3.3341 O.2       1 <0>        -0.5312 
      6 N1          6.5698   13.0535    3.1694 N.am      1 <0>        -0.1298 
      7 C5          6.5240   14.4773    2.9348 C.ar      1 <0>         0.0105 
      8 C6          7.3077   15.0768    1.9308 C.ar      1 <0>        -0.1156 
      9 C7          7.2307   16.4445    1.6747 C.ar      1 <0>        -0.1255 
     10 C8          6.4326   17.2619    2.4685 C.ar      1 <0>        -0.1181 
     11 C9          5.7131   16.7094    3.5246 C.ar      1 <0>         0.0709 
     12 C10         5.7570   15.3337    3.7535 C.ar      1 <0>        -0.0916 
     13 Cl1         4.7708   17.7283    4.5492 Cl        1 <0>        -0.1507 
     14 C11         7.7705   12.2305    2.7831 C.3       1 <0>        -0.0372 
     15 H1          7.6681   11.2537    3.2508 H         1 <0>         0.0807 
     16 C12         7.8126   11.8113    1.3031 C.ar      1 <0>        -0.0992 
     17 C13         6.9221   12.3241    0.3487 C.ar      1 <0>        -0.0682 
     18 C14         7.0335   11.9843   -0.9954 C.ar      1 <0>        -0.1963 
     19 C15         8.0117   11.0831   -1.4373 C.ar      1 <0>         0.3226 
     20 C16         8.8303   10.4890   -0.4653 C.ar      1 <0>        -0.1963 
     21 C17         8.7238   10.8360    0.8786 C.ar      1 <0>        -0.0682 
     22 N2          8.1441   10.7751   -2.8208 N.pl3     1 <0>        -0.7543 
     23 C18         7.8101   11.8212   -3.7897 C.3       1 <0>         0.0871 
     24 C19         9.2031    9.8649   -3.2583 C.3       1 <0>         0.0871 
     25 C20         9.0886   12.7398    3.4462 C.2       1 <0>         0.5054 
     26 O2          9.0254   13.3454    4.5177 O.2       1 <0>        -0.5297 
     27 N3         10.2631   12.4707    2.8502 N.am      1 <0>        -0.5564 
     28 C21        11.5779   12.8056    3.3943 C.3       1 <0>         0.1437 
     29 C22        11.9823   14.2537    3.2423 C.3       1 <0>        -0.1409 
     30 C23        13.3523   14.6027    3.8685 C.3       1 <0>        -0.1239 
     31 C24        14.4659   13.6681    3.3722 C.3       1 <0>        -0.1321 
     32 C25        14.0833   12.1959    3.5778 C.3       1 <0>        -0.1239 
     33 C26        12.7060   11.8533    2.9700 C.3       1 <0>        -0.1409 
     34 H2          6.2035   10.6376    6.4612 H         1 <0>         0.0766 
     35 H3          7.5336   11.1726    5.4509 H         1 <0>         0.0766 
     36 H4          6.4125   12.3511    6.1469 H         1 <0>         0.0766 
     37 H5          4.2468   10.0263    3.3251 H         1 <0>         0.1260 
     38 H6          4.9832    9.2277    4.8147 H         1 <0>         0.1260 
     39 H7          7.9651   14.4934    1.3068 H         1 <0>         0.1415 
     40 H8          7.7963   16.8751    0.8621 H         1 <0>         0.1380 
     41 H9          6.3871   18.3236    2.2749 H         1 <0>         0.1425 
     42 H10         5.1833   14.9357    4.5786 H         1 <0>         0.1636 
     43 H11         6.1425   13.0172    0.6242 H         1 <0>         0.1414 
     44 H12         6.3382   12.4355   -1.6855 H         1 <0>         0.1335 
     45 H13         9.5790    9.7597   -0.7296 H         1 <0>         0.1335 
     46 H14         9.3698   10.3375    1.5876 H         1 <0>         0.1414 
     47 H15         8.4313   12.6999   -3.6158 H         1 <0>         0.0627 
     48 H16         7.9839   11.4960   -4.8162 H         1 <0>         0.0627 
     49 H17         6.7703   12.1354   -3.7143 H         1 <0>         0.0627 
     50 H18         9.2010    8.9378   -2.6838 H         1 <0>         0.0627 
     51 H19         9.0831    9.5935   -4.3077 H         1 <0>         0.0627 
     52 H20        10.1793   10.3352   -3.1402 H         1 <0>         0.0627 
     53 H21        10.2530   11.9937    1.9601 H         1 <0>         0.2961 
     54 H22        11.5012   12.7223    4.4691 H         1 <0>         0.1037 
     55 H23        12.0208   14.4020    2.1656 H         1 <0>         0.0708 
     56 H24        11.2005   14.8856    3.6675 H         1 <0>         0.0708 
     57 H25        13.6195   15.6395    3.6589 H         1 <0>         0.0695 
     58 H26        13.2777   14.5300    4.9549 H         1 <0>         0.0695 
     59 H27        14.6597   13.8474    2.3142 H         1 <0>         0.0665 
     60 H28        15.3993   13.8897    3.8916 H         1 <0>         0.0665 
     61 H29        14.8463   11.5574    3.1357 H         1 <0>         0.0695 
     62 H30        14.0753   11.9672    4.6453 H         1 <0>         0.0695 
     63 H31        12.4312   10.8428    3.2637 H         1 <0>         0.0708 
     64 H32        12.7899   11.8542    1.8802 H         1 <0>         0.0708 
@<TRIPOS>BOND
     1    1    2 1    
     2    1   34 1    
     3    1   35 1    
     4    1   36 1    
     5    2    3 2    
     6    2    4 1    
     7    3   37 1    
     8    3   38 1    
     9    4    5 2    
    10    4    6 am   BACKBONE|DICT|INTERRES
    11    6    7 1    
    12    6   14 1    
    13    7   12 ar   
    14    7    8 ar   
    15    8    9 ar   
    16    8   39 1    
    17    9   10 ar   
    18    9   40 1    
    19   10   11 ar   
    20   10   41 1    
    21   11   12 ar   
    22   11   13 1    
    23   12   42 1    
    24   14   15 1    
    25   14   16 1    
    26   14   25 1    
    27   16   21 ar   
    28   16   17 ar   
    29   17   18 ar   
    30   17   43 1    
    31   18   19 ar   
    32   18   44 1    
    33   19   20 ar   
    34   19   22 1    
    35   20   21 ar   
    36   20   45 1    
    37   21   46 1    
    38   22   23 1    
    39   22   24 1    
    40   23   47 1    
    41   23   48 1    
    42   23   49 1    
    43   24   50 1    
    44   24   51 1    
    45   24   52 1    
    46   25   26 2    
    47   25   27 am   BACKBONE|DICT|INTERRES
    48   27   28 1    
    49   27   53 1    
    50   28   33 1    
    51   28   29 1    
    52   28   54 1    
    53   29   30 1    
    54   29   55 1    
    55   29   56 1    
    56   30   31 1    
    57   30   57 1    
    58   30   58 1    
    59   31   32 1    
    60   31   59 1    
    61   31   60 1    
    62   32   33 1    
    63   32   61 1    
    64   32   62 1    
    65   33   63 1    
    66   33   64 1    
@<TRIPOS>SUBSTRUCTURE
     1 <0>         1 GROUP             0       ****    0 ROOT    
@<TRIPOS>MOLECULE
ZINC01773511
64   66    1
SMALL
USER_CHARGES


@<TRIPOS>ATOM
      1 C1          2.8546    9.8388    2.9206 C.3       1 <0>        -0.1713 
      2 C2          3.9109   10.6312    3.7129 C.3       1 <0>        -0.0836 
      3 H1          4.3085    9.9512    4.4713 H         1 <0>         0.0757 
      4 C3          3.2967   11.8782    4.3738 C.3       1 <0>        -0.1283 
      5 C4          4.2736   12.5623    5.3546 C.3       1 <0>        -0.1381 
      6 C5          5.6892   12.6657    4.7504 C.2       1 <0>         0.0439 
      7 C6          6.0088   11.9662    3.5721 C.2       1 <0>        -0.0880 
      8 S1          7.6215   12.2512    3.0509 S.3       1 <0>         0.0908 
      9 C7          7.9345   13.2254    4.4579 C.2       1 <0>         0.0362 
     10 C8          6.7953   13.4146    5.2723 C.2       1 <0>        -0.0389 
     11 C9          6.8171   14.2521    6.4950 C.2       1 <0>         0.4178 
     12 O1          7.8604   14.6530    7.0223 O.2       1 <0>        -0.4192 
     13 O2          5.5859   14.5571    6.9451 O.3       1 <0>        -0.3144 
     14 C10         5.4005   15.2985    8.1445 C.3       1 <0>         0.0966 
     15 N1          9.1997   13.7409    4.7350 N.am      1 <0>        -0.3555 
     16 C11        10.3363   13.6711    4.0158 C.2       1 <0>         0.4572 
     17 O3         10.4433   13.1870    2.8887 O.2       1 <0>        -0.5032 
     18 C12        11.5539   14.2735    4.7245 C.3       1 <0>        -0.1434 
     19 C13        12.8997   14.0545    4.0010 C.3       1 <0>        -0.1711 
     20 C14        14.0269   14.8997    4.6017 C.3       1 <0>         0.1980 
     21 O4         15.2082   14.6009    3.8766 O.3       1 <0>        -0.3702 
     22 C15        16.4232   15.0539    4.3429 C.ar      1 <0>         0.1558 
     23 C16        16.5981   15.8761    5.4630 C.ar      1 <0>        -0.1802 
     24 C17        17.8786   16.2714    5.8394 C.ar      1 <0>        -0.0930 
     25 C18        19.0038   15.8656    5.1066 C.ar      1 <0>        -0.0983 
     26 C19        18.8128   15.0269    3.9997 C.ar      1 <0>        -0.0930 
     27 C20        17.5369   14.6242    3.6322 C.ar      1 <0>        -0.1802 
     28 C21        20.4143   16.3301    5.5383 C.3       1 <0>         0.0154 
     29 C22        20.8491   15.5476    6.8053 C.3       1 <0>        -0.1654 
     30 C23        21.4918   16.0467    4.4771 C.3       1 <0>        -0.1654 
     31 C24        20.4425   17.8728    5.7381 C.3       1 <0>        -0.1654 
     32 C25         5.0617   11.0703    2.7812 C.3       1 <0>        -0.1253 
     33 H2          3.2947    8.9566    2.4518 H         1 <0>         0.0618 
     34 H3          2.0524    9.4888    3.5754 H         1 <0>         0.0618 
     35 H4          2.4005   10.4449    2.1340 H         1 <0>         0.0618 
     36 H5          2.9325   12.5705    3.6123 H         1 <0>         0.0717 
     37 H6          2.3999   11.5909    4.9266 H         1 <0>         0.0717 
     38 H7          3.8561   13.5403    5.5901 H         1 <0>         0.0845 
     39 H8          4.3123   12.0011    6.2905 H         1 <0>         0.0845 
     40 H9          6.1232   16.1100    8.2416 H         1 <0>         0.0470 
     41 H10         4.4043   15.7486    8.1473 H         1 <0>         0.0470 
     42 H11         5.4834   14.6487    9.0165 H         1 <0>         0.0470 
     43 H12         9.2467   14.2314    5.6182 H         1 <0>         0.2933 
     44 H13        11.3616   15.3411    4.8381 H         1 <0>         0.0817 
     45 H14        11.6175   13.8533    5.7304 H         1 <0>         0.0817 
     46 H15        13.1745   12.9992    4.0544 H         1 <0>         0.1002 
     47 H16        12.8154   14.2867    2.9378 H         1 <0>         0.1002 
     48 H17        13.8005   15.9639    4.5145 H         1 <0>         0.0318 
     49 H18        14.1413   14.6539    5.6591 H         1 <0>         0.0318 
     50 H19        15.7577   16.2202    6.0459 H         1 <0>         0.1368 
     51 H20        17.9858   16.9002    6.7093 H         1 <0>         0.1321 
     52 H21        19.6376   14.6673    3.4040 H         1 <0>         0.1321 
     53 H22        17.4080   13.9698    2.7841 H         1 <0>         0.1368 
     54 H23        21.1300   14.5208    6.5642 H         1 <0>         0.0608 
     55 H24        21.7181   16.0044    7.2802 H         1 <0>         0.0608 
     56 H25        20.0591   15.4533    7.5447 H         1 <0>         0.0608 
     57 H26        21.2313   16.4762    3.5077 H         1 <0>         0.0608 
     58 H27        22.4595   16.4547    4.7760 H         1 <0>         0.0608 
     59 H28        21.6318   14.9709    4.3553 H         1 <0>         0.0608 
     60 H29        19.7265   18.2514    6.4643 H         1 <0>         0.0608 
     61 H30        21.4266   18.2131    6.0636 H         1 <0>         0.0608 
     62 H31        20.2255   18.3891    4.8016 H         1 <0>         0.0608 
     63 H32         5.5886   10.1991    2.3875 H         1 <0>         0.0798 
     64 H33         4.6702   11.6202    1.9237 H         1 <0>         0.0798 
@<TRIPOS>BOND
     1    1    2 1    
     2    1   33 1    
     3    1   34 1    
     4    1   35 1    
     5    2    3 1    
     6    2   32 1    
     7    2    4 1    
     8    4    5 1    
     9    4   36 1    
    10    4   37 1    
    11    5    6 1    
    12    5   38 1    
    13    5   39 1    
    14    6   10 1    
    15    6    7 2    
    16    7    8 1    
    17    7   32 1    
    18    8    9 1    
    19    9   10 2    
    20    9   15 am   BACKBONE|DICT|INTERRES
    21   10   11 1    
    22   11   12 2    
    23   11   13 1    
    24   13   14 1    
    25   14   40 1    
    26   14   41 1    
    27   14   42 1    
    28   15   16 am   BACKBONE|DICT|INTERRES
    29   15   43 1    
    30   16   17 2    
    31   16   18 1    
    32   18   19 1    
    33   18   44 1    
    34   18   45 1    
    35   19   20 1    
    36   19   46 1    
    37   19   47 1    
    38   20   21 1    
    39   20   48 1    
    40   20   49 1    
    41   21   22 1    
    42   22   27 ar   
    43   22   23 ar   
    44   23   24 ar   
    45   23   50 1    
    46   24   25 ar   
    47   24   51 1    
    48   25   26 ar   
    49   25   28 1    
    50   26   27 ar   
    51   26   52 1    
    52   27   53 1    
    53   28   29 1    
    54   28   30 1    
    55   28   31 1    
    56   29   54 1    
    57   29   55 1    
    58   29   56 1    
    59   30   57 1    
    60   30   58 1    
    61   30   59 1    
    62   31   60 1    
    63   31   61 1    
    64   31   62 1    
    65   32   63 1    
    66   32   64 1    
@<TRIPOS>SUBSTRUCTURE
     1 <0>         1 GROUP             0       ****    0 ROOT    
@<TRIPOS>MOLECULE
ZINC39884382
56   59    1
SMALL
USER_CHARGES


@<TRIPOS>ATOM
      1 C1          7.8873   12.6493   -2.5321 C.3       1 <0>        -0.2214 
      2 C2          8.8938   12.1715   -1.4793 C.3       1 <0>         0.1529 
      3 O1          8.2521   11.4672   -0.4165 O.3       1 <0>        -0.3189 
      4 C3          7.9134   10.1574   -0.5563 C.2       1 <0>         0.4208 
      5 O2          8.1995    9.4864   -1.5511 O.2       1 <0>        -0.4230 
      6 C4          7.0976    9.6496    0.5692 C.2       1 <0>        -0.0361 
      7 C5          6.4701    8.3621    0.5781 C.2       1 <0>         0.0435 
      8 C6          5.6488    8.1447    1.6975 C.2       1 <0>        -0.0863 
      9 S1          5.6315    9.4891    2.7570 S.3       1 <0>         0.0960 
     10 C7          6.8271   10.3242    1.7861 C.2       1 <0>         0.0259 
     11 N1          7.4944   11.4543    2.2841 N.am      1 <0>        -0.3431 
     12 C8          7.1950   12.1578    3.4014 C.2       1 <0>         0.4684 
     13 O3          6.1034   12.1543    3.9745 O.2       1 <0>        -0.4678 
     14 C9          8.2784   12.9337    3.9509 C.2       1 <0>         0.0063 
     15 C10         8.3589   13.5802    5.1775 C.2       1 <0>        -0.1574 
     16 C11         9.6422   14.1094    5.2724 C.2       1 <0>        -0.1842 
     17 C12        10.2984   13.7984    4.0922 C.2       1 <0>         0.0824 
     18 O4          9.4641   13.0765    3.2884 O.3       1 <0>        -0.1321 
     19 C13        11.6762   14.1192    3.5614 C.3       1 <0>        -0.0304 
     20 S2         12.8313   12.7529    3.6797 S.3       1 <0>        -0.3451 
     21 C14        14.5033   13.2940    3.4926 C.ar      1 <0>         0.1077 
     22 C15        14.8838   14.5815    3.1517 C.ar      1 <0>        -0.1247 
     23 C16        16.2323   14.8572    2.9268 C.ar      1 <0>        -0.1122 
     24 C17        17.1905   13.8540    3.0433 C.ar      1 <0>        -0.1344 
     25 C18        16.8099   12.5637    3.3605 C.ar      1 <0>        -0.1122 
     26 C19        15.4720   12.3337    3.6574 C.ar      1 <0>        -0.1247 
     27 C20         4.9098    6.8539    2.0406 C.3       1 <0>        -0.1255 
     28 C21         4.8864    5.9286    0.8045 C.3       1 <0>        -0.0836 
     29 H1          4.1487    6.3091    0.0961 H         1 <0>         0.0756 
     30 C22         6.2818    5.8827    0.1533 C.3       1 <0>        -0.1285 
     31 C23         6.6631    7.2452   -0.4612 C.3       1 <0>        -0.1381 
     32 C24         4.4170    4.5217    1.2180 C.3       1 <0>        -0.1713 
     33 H2          8.4314   13.0538   -3.3844 H         1 <0>         0.0737 
     34 H3          7.2694   11.8317   -2.9027 H         1 <0>         0.0737 
     35 H4          7.2306   13.4272   -2.1391 H         1 <0>         0.0737 
     36 H5          9.6302   11.5384   -1.9710 H         1 <0>         0.0454 
     37 H6          9.4471   13.0188   -1.0721 H         1 <0>         0.0454 
     38 H7          8.3016   11.7480    1.7516 H         1 <0>         0.2994 
     39 H8          7.5809   13.6243    5.9289 H         1 <0>         0.1903 
     40 H9         10.0454   14.6543    6.1119 H         1 <0>         0.1812 
     41 H10        11.6259   14.2540    2.4826 H         1 <0>         0.1059 
     42 H11        12.0950   14.9946    4.0623 H         1 <0>         0.1059 
     43 H12        14.1448   15.3311    2.9284 H         1 <0>         0.1345 
     44 H13        16.5584   15.8293    2.5961 H         1 <0>         0.1333 
     45 H14        18.2325   14.0751    2.8612 H         1 <0>         0.1319 
     46 H15        17.5537   11.7918    3.4873 H         1 <0>         0.1333 
     47 H16        15.1201   11.4537    4.1046 H         1 <0>         0.1345 
     48 H17         5.4263    6.3583    2.8615 H         1 <0>         0.0803 
     49 H18         3.8944    7.0631    2.3765 H         1 <0>         0.0803 
     50 H19         7.0304    5.5392    0.8694 H         1 <0>         0.0717 
     51 H20         6.2939    5.1288   -0.6346 H         1 <0>         0.0717 
     52 H21         6.0620    7.4492   -1.3464 H         1 <0>         0.0847 
     53 H22         7.6996    7.1792   -0.7954 H         1 <0>         0.0847 
     54 H23         3.4338    4.5563    1.6902 H         1 <0>         0.0620 
     55 H24         4.3414    3.8588    0.3561 H         1 <0>         0.0620 
     56 H25         5.1113    4.0660    1.9266 H         1 <0>         0.0620 
@<TRIPOS>BOND
     1    1    2 1    
     2    1   33 1    
     3    1   34 1    
     4    1   35 1    
     5    2    3 1    
     6    2   36 1    
     7    2   37 1    
     8    3    4 1    
     9    4    5 2    
    10    4    6 1    
    11    6   10 2    
    12    6    7 1    
    13    7   31 1    
    14    7    8 2    
    15    8    9 1    
    16    8   27 1    
    17    9   10 1    
    18   10   11 am   BACKBONE|DICT|INTERRES
    19   11   12 am   BACKBONE|DICT|INTERRES
    20   11   38 1    
    21   12   13 2    
    22   12   14 1    
    23   14   18 1    
    24   14   15 2    
    25   15   16 1    
    26   15   39 1    
    27   16   17 2    
    28   16   40 1    
    29   17   18 1    
    30   17   19 1    
    31   19   20 1    
    32   19   41 1    
    33   19   42 1    
    34   20   21 1    
    35   21   26 ar   
    36   21   22 ar   
    37   22   23 ar   
    38   22   43 1    
    39   23   24 ar   
    40   23   44 1    
    41   24   25 ar   
    42   24   45 1    
    43   25   26 ar   
    44   25   46 1    
    45   26   47 1    
    46   27   28 1    
    47   27   48 1    
    48   27   49 1    
    49   28   29 1    
    50   28   30 1    
    51   28   32 1    
    52   30   31 1    
    53   30   50 1    
    54   30   51 1    
    55   31   52 1    
    56   31   53 1    
    57   32   54 1    
    58   32   55 1    
    59   32   56 1    
@<TRIPOS>SUBSTRUCTURE
     1 <0>         1 GROUP             0       ****    0 ROOT    
@<TRIPOS>MOLECULE
ZINC40343311
60   64    1
SMALL
USER_CHARGES


@<TRIPOS>ATOM
      1 C1          8.9013   10.2685   -3.9458 C.3       1 <0>        -0.1705 
      2 C2          8.7090   10.0857   -2.4339 C.3       1 <0>        -0.1787 
      3 C3          8.2741   11.3758   -1.7257 C.3       1 <0>         0.1970 
      4 O1          8.2283   11.1223   -0.3246 O.3       1 <0>        -0.3742 
      5 C4          7.7980   12.1164    0.5314 C.ar      1 <0>         0.1598 
      6 C5          7.2976   13.3616    0.1192 C.ar      1 <0>        -0.1922 
      7 C6          6.8887   14.3080    1.0584 C.ar      1 <0>        -0.0995 
      8 C7          6.9658   14.0175    2.4189 C.ar      1 <0>        -0.1348 
      9 C8          7.4506   12.7768    2.8481 C.ar      1 <0>        -0.0659 
     10 C9          7.8660   11.8393    1.8974 C.ar      1 <0>        -0.1431 
     11 C10         7.5437   12.4329    4.3334 C.3       1 <0>         0.1100 
     12 H1          7.8138   11.3786    4.4131 H         1 <0>         0.1064 
     13 C11         6.3487   12.7480    5.1593 C.ar      1 <0>        -0.1247 
     14 C12         5.0048   12.4171    5.4129 C.ar      1 <0>         0.0073 
     15 N1          4.5510   13.1255    6.4362 N.2       1 <0>        -0.1233 
     16 N2          5.5945   13.8534    6.8644 N.pl3     1 <0>         0.0103 
     17 H2          5.5665   14.3789    7.7270 H         1 <0>         0.2858 
     18 C13         6.7185   13.6186    6.1275 C.ar      1 <0>        -0.1167 
     19 C14         8.1096   13.9321    6.1035 C.2       1 <0>         0.4764 
     20 O2          8.7573   14.6461    6.8675 O.2       1 <0>        -0.5057 
     21 N3          8.5574   13.2391    5.0234 N.am      1 <0>        -0.3504 
     22 C15         9.9805   13.0537    4.7437 C.3       1 <0>         0.0188 
     23 C16        10.6973   14.2428    4.0889 C.3       1 <0>        -0.1040 
     24 C17        12.1569   13.9137    3.7772 C.ar      1 <0>        -0.0861 
     25 C18        13.1856   14.6532    4.3707 C.ar      1 <0>        -0.1215 
     26 C19        14.5153   14.3805    4.0653 C.ar      1 <0>        -0.1283 
     27 C20        14.8199   13.3670    3.1609 C.ar      1 <0>        -0.1285 
     28 C21        13.8026   12.6326    2.5570 C.ar      1 <0>        -0.1283 
     29 C22        12.4710   12.9020    2.8647 C.ar      1 <0>        -0.1215 
     30 C23         4.1649   11.3821    4.7374 C.ar      1 <0>        -0.0196 
     31 C24         4.3229   11.1204    3.3725 C.ar      1 <0>        -0.0941 
     32 C25         3.5694   10.1247    2.7560 C.ar      1 <0>        -0.1243 
     33 C26         2.6579    9.3836    3.5053 C.ar      1 <0>         0.0786 
     34 C27         2.4910    9.6370    4.8646 C.ar      1 <0>        -0.1243 
     35 C28         3.2397   10.6366    5.4788 C.ar      1 <0>        -0.0941 
     36 Cl1         1.7346    8.1388    2.7457 Cl        1 <0>        -0.1542 
     37 H3          7.9670   10.5468   -4.4339 H         1 <0>         0.0639 
     38 H4          9.6321   11.0499   -4.1584 H         1 <0>         0.0639 
     39 H5          9.2585    9.3486   -4.4086 H         1 <0>         0.0639 
     40 H6          7.9695    9.3050   -2.2516 H         1 <0>         0.0800 
     41 H7          9.6379    9.7269   -1.9922 H         1 <0>         0.0800 
     42 H8          8.9825   12.1813   -1.9313 H         1 <0>         0.0357 
     43 H9          7.2938   11.6784   -2.0981 H         1 <0>         0.0357 
     44 H10         7.2131   13.6051   -0.9273 H         1 <0>         0.1343 
     45 H11         6.5053   15.2630    0.7304 H         1 <0>         0.1362 
     46 H12         6.6424   14.7527    3.1416 H         1 <0>         0.1386 
     47 H13         8.2452   10.8779    2.2141 H         1 <0>         0.1428 
     48 H14        10.4630   12.8026    5.6895 H         1 <0>         0.0950 
     49 H15        10.0327   12.2064    4.0636 H         1 <0>         0.0950 
     50 H16        10.2034   14.5104    3.1539 H         1 <0>         0.0785 
     51 H17        10.6445   15.1125    4.7441 H         1 <0>         0.0785 
     52 H18        12.9627   15.4532    5.0549 H         1 <0>         0.1332 
     53 H19        15.3061   14.9549    4.5254 H         1 <0>         0.1310 
     54 H20        15.8513   13.1544    2.9201 H         1 <0>         0.1296 
     55 H21        14.0411   11.8540    1.8469 H         1 <0>         0.1310 
     56 H22        11.6897   12.3307    2.3837 H         1 <0>         0.1332 
     57 H23         5.0262   11.6859    2.7822 H         1 <0>         0.1430 
     58 H24         3.6983    9.9246    1.7025 H         1 <0>         0.1461 
     59 H25         1.7982    9.0545    5.4552 H         1 <0>         0.1461 
     60 H26         3.1169   10.8003    6.5415 H         1 <0>         0.1430 
@<TRIPOS>BOND
     1    1    2 1    
     2    1   37 1    
     3    1   38 1    
     4    1   39 1    
     5    2    3 1    
     6    2   40 1    
     7    2   41 1    
     8    3    4 1    
     9    3   42 1    
    10    3   43 1    
    11    4    5 1    
    12    5   10 ar   
    13    5    6 ar   
    14    6    7 ar   
    15    6   44 1    
    16    7    8 ar   
    17    7   45 1    
    18    8    9 ar   
    19    8   46 1    
    20    9   10 ar   
    21    9   11 1    
    22   10   47 1    
    23   11   12 1    
    24   11   21 1    
    25   11   13 1    
    26   13   18 ar   
    27   13   14 ar   
    28   14   15 ar   
    29   14   30 1    
    30   15   16 ar   
    31   16   17 1    
    32   16   18 ar   
    33   18   19 1    
    34   19   20 2    
    35   19   21 am   BACKBONE|DICT|INTERRES
    36   21   22 1    
    37   22   23 1    
    38   22   48 1    
    39   22   49 1    
    40   23   24 1    
    41   23   50 1    
    42   23   51 1    
    43   24   29 ar   
    44   24   25 ar   
    45   25   26 ar   
    46   25   52 1    
    47   26   27 ar   
    48   26   53 1    
    49   27   28 ar   
    50   27   54 1    
    51   28   29 ar   
    52   28   55 1    
    53   29   56 1    
    54   30   35 ar   
    55   30   31 ar   
    56   31   32 ar   
    57   31   57 1    
    58   32   33 ar   
    59   32   58 1    
    60   33   34 ar   
    61   33   36 1    
    62   34   35 ar   
    63   34   59 1    
    64   35   60 1    
@<TRIPOS>SUBSTRUCTURE
     1 <0>         1 GROUP             0       ****    0 ROOT    
@<TRIPOS>MOLECULE
ZINC01956647
62   65    1
SMALL
USER_CHARGES


@<TRIPOS>ATOM
      1 C1          9.6325    9.8647   -4.7305 C.3       1 <0>        -0.2213 
      2 C2          8.2170    9.5466   -4.2265 C.3       1 <0>         0.1533 
      3 O1          7.6315   10.6372   -3.5173 O.3       1 <0>        -0.3150 
      4 C3          7.9723   10.9147   -2.2367 C.2       1 <0>         0.4247 
      5 O2          8.8314   10.2914   -1.6060 O.2       1 <0>        -0.4268 
      6 C4          7.2005   12.0405   -1.6553 C.2       1 <0>        -0.0329 
      7 C5          6.0295   12.6615   -2.1949 C.2       1 <0>         0.0425 
      8 C6          5.5256   13.6931   -1.3798 C.2       1 <0>        -0.0874 
      9 S1          6.4327   13.8952    0.0658 S.3       1 <0>         0.0860 
     10 C7          7.5574   12.6666   -0.4402 C.2       1 <0>         0.0310 
     11 N1          8.7206   12.3934    0.2741 N.am      1 <0>        -0.3343 
     12 C8          9.1381   12.8577    1.4709 C.2       1 <0>         0.4665 
     13 O3          8.4681   13.5613    2.2310 O.2       1 <0>        -0.5096 
     14 C9         10.5903   12.4621    1.8265 C.3       1 <0>         0.1793 
     15 H1         11.2271   12.7775    0.9979 H         1 <0>         0.0653 
     16 C10        10.6840   10.9596    2.0351 C.3       1 <0>        -0.2228 
     17 O4         10.9858   13.1185    3.0350 O.3       1 <0>        -0.3753 
     18 C11        12.3230   13.3583    3.2926 C.ar      1 <0>         0.1501 
     19 C12        13.4043   12.7866    2.6078 C.ar      1 <0>        -0.1780 
     20 C13        14.7052   13.2222    2.8639 C.ar      1 <0>        -0.0833 
     21 C14        14.9713   14.2259    3.8125 C.ar      1 <0>        -0.0701 
     22 C15        13.8766   14.7098    4.5460 C.ar      1 <0>        -0.0833 
     23 C16        12.5812   14.2719    4.3023 C.ar      1 <0>        -0.1780 
     24 C17        16.3697   14.7454    4.0647 C.ar      1 <0>        -0.0389 
     25 C18        17.4950   14.1771    3.4426 C.ar      1 <0>        -0.1146 
     26 C19        18.7813   14.6378    3.7131 C.ar      1 <0>        -0.1313 
     27 C20        18.9786   15.6727    4.6165 C.ar      1 <0>        -0.1265 
     28 C21        17.8920   16.2532    5.2545 C.ar      1 <0>        -0.1313 
     29 C22        16.6076   15.7932    4.9809 C.ar      1 <0>        -0.1146 
     30 C23         4.2828   14.5291   -1.6648 C.3       1 <0>        -0.1249 
     31 C24         3.9387   14.4099   -3.1658 C.3       1 <0>        -0.0840 
     32 H2          4.6967   14.9425   -3.7454 H         1 <0>         0.0794 
     33 C25         3.9041   12.9214   -3.5581 C.3       1 <0>        -0.1285 
     34 C26         5.3065   12.2800   -3.4981 C.3       1 <0>        -0.1384 
     35 C27         2.5938   15.0992   -3.4589 C.3       1 <0>        -0.1712 
     36 H3         10.0403    9.0308   -5.3016 H         1 <0>         0.0734 
     37 H4          9.6318   10.7446   -5.3745 H         1 <0>         0.0734 
     38 H5         10.3177   10.0673   -3.9059 H         1 <0>         0.0734 
     39 H6          7.5765    9.3249   -5.0806 H         1 <0>         0.0455 
     40 H7          8.2236    8.6484   -3.6067 H         1 <0>         0.0455 
     41 H8          9.3130   11.7086   -0.1775 H         1 <0>         0.3078 
     42 H9          9.9069   10.6537    2.7300 H         1 <0>         0.0824 
     43 H10        10.5468   10.3995    1.1089 H         1 <0>         0.0824 
     44 H11        11.6318   10.6507    2.4639 H         1 <0>         0.0824 
     45 H12        13.2553   12.0472    1.8356 H         1 <0>         0.1427 
     46 H13        15.4902   12.7787    2.2743 H         1 <0>         0.1399 
     47 H14        13.9913   15.4497    5.3185 H         1 <0>         0.1399 
     48 H15        11.7591   14.6915    4.8623 H         1 <0>         0.1427 
     49 H16        17.4090   13.3591    2.7465 H         1 <0>         0.1338 
     50 H17        19.6322   14.1781    3.2379 H         1 <0>         0.1314 
     51 H18        19.9800   16.0201    4.8258 H         1 <0>         0.1298 
     52 H19        18.0421   17.0570    5.9604 H         1 <0>         0.1314 
     53 H20        15.8091   16.2891    5.5064 H         1 <0>         0.1338 
     54 H21         3.4540   14.1624   -1.0578 H         1 <0>         0.0789 
     55 H22         4.4432   15.5732   -1.3926 H         1 <0>         0.0789 
     56 H23         3.1792   12.3812   -2.9461 H         1 <0>         0.0696 
     57 H24         3.5235   12.8209   -4.5758 H         1 <0>         0.0696 
     58 H25         5.8999   12.6086   -4.3526 H         1 <0>         0.0855 
     59 H26         5.1939   11.1996   -3.5917 H         1 <0>         0.0855 
     60 H27         2.6196   16.1521   -3.1748 H         1 <0>         0.0614 
     61 H28         2.3528   15.0564   -4.5216 H         1 <0>         0.0614 
     62 H29         1.7729   14.6293   -2.9155 H         1 <0>         0.0614 
@<TRIPOS>BOND
     1    1    2 1    
     2    1   36 1    
     3    1   37 1    
     4    1   38 1    
     5    2    3 1    
     6    2   39 1    
     7    2   40 1    
     8    3    4 1    
     9    4    5 2    
    10    4    6 1    
    11    6   10 2    
    12    6    7 1    
    13    7   34 1    
    14    7    8 2    
    15    8    9 1    
    16    8   30 1    
    17    9   10 1    
    18   10   11 am   BACKBONE|DICT|INTERRES
    19   11   12 am   BACKBONE|DICT|INTERRES
    20   11   41 1    
    21   12   13 2    
    22   12   14 1    
    23   14   15 1    
    24   14   16 1    
    25   14   17 1    
    26   16   42 1    
    27   16   43 1    
    28   16   44 1    
    29   17   18 1    
    30   18   23 ar   
    31   18   19 ar   
    32   19   20 ar   
    33   19   45 1    
    34   20   21 ar   
    35   20   46 1    
    36   21   22 ar   
    37   21   24 1    
    38   22   23 ar   
    39   22   47 1    
    40   23   48 1    
    41   24   29 ar   
    42   24   25 ar   
    43   25   26 ar   
    44   25   49 1    
    45   26   27 ar   
    46   26   50 1    
    47   27   28 ar   
    48   27   51 1    
    49   28   29 ar   
    50   28   52 1    
    51   29   53 1    
    52   30   31 1    
    53   30   54 1    
    54   30   55 1    
    55   31   32 1    
    56   31   33 1    
    57   31   35 1    
    58   33   34 1    
    59   33   56 1    
    60   33   57 1    
    61   34   58 1    
    62   34   59 1    
    63   35   60 1    
    64   35   61 1    
    65   35   62 1    
@<TRIPOS>SUBSTRUCTURE
     1 <0>         1 GROUP             0       ****    0 ROOT    
@<TRIPOS>MOLECULE
ZINC01956816
58   60    1
SMALL
USER_CHARGES


@<TRIPOS>ATOM
      1 C1          7.3695   12.1392   -3.6425 C.3       1 <0>        -0.2213 
      2 C2          6.0949   12.0168   -2.7921 C.3       1 <0>         0.1533 
      3 O1          5.9821   13.0851   -1.8544 O.3       1 <0>        -0.3148 
      4 C3          6.6297   13.0540   -0.6669 C.2       1 <0>         0.4249 
      5 O2          7.3397   12.1136   -0.2987 O.2       1 <0>        -0.4276 
      6 C4          6.4388   14.2888    0.1360 C.2       1 <0>        -0.0326 
      7 C5          5.5326   15.3655   -0.1252 C.2       1 <0>         0.0424 
      8 C6          5.6368   16.4151    0.8074 C.2       1 <0>        -0.0868 
      9 S1          6.7972   16.0949    2.0355 S.3       1 <0>         0.0865 
     10 C7          7.1982   14.5732    1.2942 C.2       1 <0>         0.0300 
     11 N1          8.2447   13.7837    1.7612 N.am      1 <0>        -0.3338 
     12 C8          9.0119   13.9119    2.8642 C.2       1 <0>         0.4663 
     13 O3          8.7608   14.6536    3.8143 O.2       1 <0>        -0.5087 
     14 C9         10.3099   13.0775    2.8188 C.3       1 <0>         0.1788 
     15 H1         10.8102   13.3379    1.8836 H         1 <0>         0.0660 
     16 C10         9.9942   11.5742    2.8211 C.3       1 <0>        -0.2231 
     17 O4         11.1364   13.4532    3.9299 O.3       1 <0>        -0.3737 
     18 C11        12.5051   13.5274    3.7590 C.ar      1 <0>         0.1562 
     19 C12        13.2386   12.7392    2.8645 C.ar      1 <0>        -0.1764 
     20 C13        14.6164   12.9227    2.7209 C.ar      1 <0>        -0.0335 
     21 C14        15.2818   13.8945    3.4816 C.ar      1 <0>         0.0429 
     22 C15        14.5614   14.6550    4.4126 C.ar      1 <0>        -0.0335 
     23 C16        13.1870   14.4540    4.5413 C.ar      1 <0>        -0.1764 
     24 C17        15.2316   15.6839    5.3118 C.3       1 <0>        -0.1279 
     25 Cl1        16.9865   14.1461    3.2658 Cl        1 <0>        -0.1589 
     26 C18        15.3809   12.0673    1.7339 C.3       1 <0>        -0.1279 
     27 C19         4.8001   17.6905    0.8137 C.3       1 <0>        -0.1250 
     28 C20         4.1678   17.8768   -0.5833 C.3       1 <0>        -0.0840 
     29 H2          4.9530   18.1447   -1.2938 H         1 <0>         0.0794 
     30 C21         3.4795   16.5665   -1.0073 C.3       1 <0>        -0.1285 
     31 C22         4.5027   15.4409   -1.2658 C.3       1 <0>        -0.1384 
     32 C23         3.1738   19.0523   -0.5634 C.3       1 <0>        -0.1712 
     33 H3          7.4577   11.3016   -4.3334 H         1 <0>         0.0735 
     34 H4          7.3577   13.0533   -4.2350 H         1 <0>         0.0735 
     35 H5          8.2704   12.1553   -3.0267 H         1 <0>         0.0735 
     36 H6          5.2240   12.0500   -3.4473 H         1 <0>         0.0455 
     37 H7          6.0605   11.0505   -2.2848 H         1 <0>         0.0455 
     38 H8          8.4402   12.9884    1.1657 H         1 <0>         0.3075 
     39 H9          9.4636   11.2679    1.9181 H         1 <0>         0.0829 
     40 H10        10.8977   10.9693    2.8640 H         1 <0>         0.0829 
     41 H11         9.3533   11.3257    3.6639 H         1 <0>         0.0829 
     42 H12        12.7492   11.9918    2.2594 H         1 <0>         0.1465 
     43 H13        12.6302   15.0399    5.2507 H         1 <0>         0.1465 
     44 H14        15.0354   16.6912    4.9456 H         1 <0>         0.0772 
     45 H15        14.8329   15.6056    6.3234 H         1 <0>         0.0772 
     46 H16        16.3068   15.5389    5.4078 H         1 <0>         0.0772 
     47 H17        15.6315   12.6572    0.8645 H         1 <0>         0.0772 
     48 H18        16.3097   11.7307    2.1910 H         1 <0>         0.0772 
     49 H19        14.8318   11.1933    1.3947 H         1 <0>         0.0772 
     50 H20         4.0203   17.6066    1.5724 H         1 <0>         0.0790 
     51 H21         5.4105   18.5568    1.0740 H         1 <0>         0.0790 
     52 H22         2.7247   16.2753   -0.2745 H         1 <0>         0.0697 
     53 H23         2.9117   16.7326   -1.9242 H         1 <0>         0.0697 
     54 H24         5.0163   15.6187   -2.2121 H         1 <0>         0.0855 
     55 H25         3.9603   14.5017   -1.3757 H         1 <0>         0.0855 
     56 H26         3.6631   19.9784   -0.2590 H         1 <0>         0.0615 
     57 H27         2.7448   19.2225   -1.5510 H         1 <0>         0.0615 
     58 H28         2.3492   18.8706    0.1267 H         1 <0>         0.0615 
@<TRIPOS>BOND
     1    1    2 1    
     2    1   33 1    
     3    1   34 1    
     4    1   35 1    
     5    2    3 1    
     6    2   36 1    
     7    2   37 1    
     8    3    4 1    
     9    4    5 2    
    10    4    6 1    
    11    6   10 2    
    12    6    7 1    
    13    7   31 1    
    14    7    8 2    
    15    8    9 1    
    16    8   27 1    
    17    9   10 1    
    18   10   11 am   BACKBONE|DICT|INTERRES
    19   11   12 am   BACKBONE|DICT|INTERRES
    20   11   38 1    
    21   12   13 2    
    22   12   14 1    
    23   14   15 1    
    24   14   16 1    
    25   14   17 1    
    26   16   39 1    
    27   16   40 1    
    28   16   41 1    
    29   17   18 1    
    30   18   23 ar   
    31   18   19 ar   
    32   19   20 ar   
    33   19   42 1    
    34   20   21 ar   
    35   20   26 1    
    36   21   22 ar   
    37   21   25 1    
    38   22   23 ar   
    39   22   24 1    
    40   23   43 1    
    41   24   44 1    
    42   24   45 1    
    43   24   46 1    
    44   26   47 1    
    45   26   48 1    
    46   26   49 1    
    47   27   28 1    
    48   27   50 1    
    49   27   51 1    
    50   28   29 1    
    51   28   30 1    
    52   28   32 1    
    53   30   31 1    
    54   30   52 1    
    55   30   53 1    
    56   31   54 1    
    57   31   55 1    
    58   32   56 1    
    59   32   57 1    
    60   32   58 1    
@<TRIPOS>SUBSTRUCTURE
     1 <0>         1 GROUP             0       ****    0 ROOT    
@<TRIPOS>MOLECULE
ZINC19945875
54   57    1
SMALL
USER_CHARGES


@<TRIPOS>ATOM
      1 C1          7.6998    6.0591   -0.4339 C.ar      1 <0>        -0.1337 
      2 C2          7.2262    5.9015    0.8647 C.ar      1 <0>        -0.1077 
      3 C3          6.6877    6.9944    1.5393 C.ar      1 <0>        -0.1331 
      4 C4          6.6275    8.2492    0.9261 C.ar      1 <0>         0.0907 
      5 C5          7.1128    8.3965   -0.3796 C.ar      1 <0>        -0.1331 
      6 C6          7.6419    7.3012   -1.0591 C.ar      1 <0>        -0.1077 
      7 N1          6.0415    9.2879    1.6704 N.pl3     1 <0>        -0.4646 
      8 S1          6.1138   11.0295    1.3189 S.o2      1 <0>         0.9078 
      9 O1          6.0065   11.2316   -0.1301 O.2       1 <0>        -0.4928 
     10 O2          5.1348   11.6509    2.2182 O.2       1 <0>        -0.4928 
     11 C7          7.7341   11.5884    1.8436 C.ar      1 <0>        -0.2109 
     12 C8          7.8736   12.2557    3.0603 C.ar      1 <0>        -0.0199 
     13 C9          9.1195   12.7398    3.4444 C.ar      1 <0>        -0.1524 
     14 C10        10.2529   12.5380    2.6536 C.ar      1 <0>         0.2494 
     15 C11        10.0903   11.8728    1.4247 C.ar      1 <0>        -0.1524 
     16 C12         8.8455   11.3910    1.0255 C.ar      1 <0>        -0.0199 
     17 N2         11.4464   13.1501    3.0673 N.2       1 <0>        -0.5732 
     18 C13        12.5840   12.6126    2.8598 C.2       1 <0>         0.2892 
     19 C14        13.8625   13.2463    3.2035 C.ar      1 <0>        -0.1031 
     20 C15        13.9127   14.4279    3.9523 C.ar      1 <0>        -0.0535 
     21 C16        15.1277   15.0541    4.1946 C.ar      1 <0>        -0.1923 
     22 C17        16.3156   14.5296    3.6937 C.ar      1 <0>         0.1808 
     23 C18        16.2790   13.3279    2.9688 C.ar      1 <0>        -0.1923 
     24 C19        15.0596   12.6892    2.7343 C.ar      1 <0>        -0.0535 
     25 O3         17.4590   15.2434    4.0008 O.3       1 <0>        -0.3624 
     26 C20        18.7369   14.6773    3.7328 C.3       1 <0>         0.2081 
     27 C21        19.8289   15.5927    4.2792 C.ar      1 <0>        -0.1035 
     28 C22        20.0767   16.8224    3.6614 C.ar      1 <0>        -0.0945 
     29 C23        21.0994   17.6453    4.1303 C.ar      1 <0>        -0.1251 
     30 C24        21.8760   17.2379    5.2144 C.ar      1 <0>         0.0826 
     31 C25        21.6317   16.0162    5.8391 C.ar      1 <0>        -0.1251 
     32 C26        20.6021   15.1987    5.3776 C.ar      1 <0>        -0.0945 
     33 Cl1        23.1548   18.2504    5.7805 Cl        1 <0>        -0.1493 
     34 H1          8.1218    5.2133   -0.9570 H         1 <0>         0.1336 
     35 H2          7.2775    4.9370    1.3474 H         1 <0>         0.1369 
     36 H3          6.3224    6.8611    2.5478 H         1 <0>         0.1438 
     37 H4          7.0915    9.3387   -0.8985 H         1 <0>         0.1438 
     38 H5          8.0158    7.4188   -2.0648 H         1 <0>         0.1369 
     39 H6          5.7106    9.0530    2.5930 H         1 <0>         0.2828 
     40 H7          7.0200   12.4188    3.7023 H         1 <0>         0.1495 
     41 H8          9.2064   13.2773    4.3766 H         1 <0>         0.1432 
     42 H9         10.9326   11.7383    0.7627 H         1 <0>         0.1432 
     43 H10         8.7468   10.8831    0.0773 H         1 <0>         0.1495 
     44 H11        12.6713   11.6402    2.3820 H         1 <0>         0.0324 
     45 H12        13.0091   14.8787    4.3381 H         1 <0>         0.1444 
     46 H13        15.1488   15.9649    4.7754 H         1 <0>         0.1439 
     47 H14        17.1831   12.8863    2.5774 H         1 <0>         0.1439 
     48 H15        15.0466   11.7729    2.1595 H         1 <0>         0.1444 
     49 H16        18.8114   13.6915    4.1926 H         1 <0>         0.0435 
     50 H17        18.8821   14.5455    2.6604 H         1 <0>         0.0435 
     51 H18        19.4870   17.1326    2.8108 H         1 <0>         0.1407 
     52 H19        21.2982   18.5910    3.6476 H         1 <0>         0.1474 
     53 H20        22.2464   15.6959    6.6698 H         1 <0>         0.1474 
     54 H21        20.4238   14.2530    5.8680 H         1 <0>         0.1407 
@<TRIPOS>BOND
     1    1    6 ar   
     2    1    2 ar   
     3    1   34 1    
     4    2    3 ar   
     5    2   35 1    
     6    3    4 ar   
     7    3   36 1    
     8    4    5 ar   
     9    4    7 1    
    10    5    6 ar   
    11    5   37 1    
    12    6   38 1    
    13    7    8 1    
    14    7   39 1    
    15    8    9 2    
    16    8   10 2    
    17    8   11 1    
    18   11   16 ar   
    19   11   12 ar   
    20   12   13 ar   
    21   12   40 1    
    22   13   14 ar   
    23   13   41 1    
    24   14   15 ar   
    25   14   17 1    
    26   15   16 ar   
    27   15   42 1    
    28   16   43 1    
    29   17   18 2    
    30   18   19 1    
    31   18   44 1    
    32   19   24 ar   
    33   19   20 ar   
    34   20   21 ar   
    35   20   45 1    
    36   21   22 ar   
    37   21   46 1    
    38   22   23 ar   
    39   22   25 1    
    40   23   24 ar   
    41   23   47 1    
    42   24   48 1    
    43   25   26 1    
    44   26   27 1    
    45   26   49 1    
    46   26   50 1    
    47   27   32 ar   
    48   27   28 ar   
    49   28   29 ar   
    50   28   51 1    
    51   29   30 ar   
    52   29   52 1    
    53   30   31 ar   
    54   30   33 1    
    55   31   32 ar   
    56   31   53 1    
    57   32   54 1    
@<TRIPOS>SUBSTRUCTURE
     1 <0>         1 GROUP             0       ****    0 ROOT    
@<TRIPOS>MOLECULE
ZINC59105773
53   56    1
SMALL
USER_CHARGES


@<TRIPOS>ATOM
      1 C1          7.0364    9.2295    0.1025 C.3       1 <0>        -0.2190 
      2 C2          8.1608   10.0855    0.6877 C.3       1 <0>         0.1948 
      3 O1          7.5910   11.0537    1.5498 O.3       1 <0>        -0.3533 
      4 C3          8.4042   11.9741    2.1846 C.ar      1 <0>         0.1378 
      5 C4          9.8074   12.0355    2.0456 C.ar      1 <0>        -0.1536 
      6 C5         10.5540   13.0341    2.6847 C.ar      1 <0>        -0.1157 
      7 C6          9.8571   14.0069    3.4139 C.ar      1 <0>        -0.0845 
      8 C7          8.4859   13.9205    3.6134 C.ar      1 <0>        -0.1779 
      9 C8          7.7520   12.8867    3.0244 C.ar      1 <0>         0.1491 
     10 O2          6.3938   12.7205    3.2225 O.3       1 <0>        -0.3493 
     11 C9          5.7783   13.3087    4.3668 C.3       1 <0>         0.2098 
     12 C10         4.4432   12.6232    4.6076 C.ar      1 <0>        -0.1150 
     13 C11         3.4369   12.7201    3.6431 C.ar      1 <0>        -0.0773 
     14 C12         2.2170   12.0804    3.8448 C.ar      1 <0>        -0.1729 
     15 C13         2.0073   11.3427    5.0073 C.ar      1 <0>         0.2227 
     16 C14         3.0070   11.2408    5.9717 C.ar      1 <0>        -0.1729 
     17 C15         4.2271   11.8838    5.7758 C.ar      1 <0>        -0.0773 
     18 F1          0.8220   10.7211    5.1961 F         1 <0>        -0.2192 
     19 C16        12.0409   13.0904    2.5425 C.2       1 <0>         0.0528 
     20 C17        12.9780   13.5189    3.4327 C.2       1 <0>        -0.0962 
     21 C18        12.6905   13.8314    4.8071 C.2       1 <0>         0.4736 
     22 O3         11.7388   13.4713    5.4987 O.2       1 <0>        -0.4695 
     23 N1         13.6317   14.6469    5.2645 N.am      1 <0>        -0.2710 
     24 C19        14.8101   14.8032    4.6907 C.2       1 <0>         0.3247 
     25 N2         15.7581   15.4544    5.2340 N.2       1 <0>        -0.5732 
     26 C20        17.0723   15.6783    4.8240 C.ar      1 <0>         0.2178 
     27 C21        17.7977   14.9046    3.9099 C.ar      1 <0>        -0.1064 
     28 C22        19.1114   15.2341    3.6005 C.ar      1 <0>        -0.1555 
     29 C23        19.7333   16.3110    4.2237 C.ar      1 <0>         0.2080 
     30 C24        19.0552   17.0411    5.1889 C.ar      1 <0>        -0.1555 
     31 C25        17.7413   16.7060    5.4955 C.ar      1 <0>        -0.1064 
     32 F2         20.9993   16.6527    3.8991 F         1 <0>        -0.2185 
     33 S1         14.7119   13.8533    3.1701 S.3       1 <0>        -0.1603 
     34 H1          7.4386    8.4580   -0.5540 H         1 <0>         0.0752 
     35 H2          6.4727    8.7351    0.8947 H         1 <0>         0.0752 
     36 H3          6.3411    9.8380   -0.4767 H         1 <0>         0.0752 
     37 H4          8.8316    9.4538    1.2648 H         1 <0>         0.0318 
     38 H5          8.7300   10.5575   -0.1152 H         1 <0>         0.0318 
     39 H6         10.3274   11.3060    1.4422 H         1 <0>         0.1393 
     40 H7         10.3789   14.8373    3.8637 H         1 <0>         0.1398 
     41 H8          8.0020   14.6652    4.2258 H         1 <0>         0.1416 
     42 H9          6.4086   13.2044    5.2533 H         1 <0>         0.0406 
     43 H10         5.6129   14.3749    4.2036 H         1 <0>         0.0406 
     44 H11         3.6051   13.2814    2.7355 H         1 <0>         0.1409 
     45 H12         1.4367   12.1479    3.1018 H         1 <0>         0.1471 
     46 H13         2.8346   10.6556    6.8644 H         1 <0>         0.1471 
     47 H14         4.9978   11.7950    6.5293 H         1 <0>         0.1409 
     48 H15        12.4006   12.8003    1.5675 H         1 <0>         0.1408 
     49 H16        13.5189   15.0171    6.1959 H         1 <0>         0.3113 
     50 H17        17.3599   14.0522    3.4184 H         1 <0>         0.1450 
     51 H18        19.6317   14.6505    2.8648 H         1 <0>         0.1500 
     52 H19        19.5442   17.8640    5.6882 H         1 <0>         0.1500 
     53 H20        17.2214   17.2805    6.2490 H         1 <0>         0.1450 
@<TRIPOS>BOND
     1    1    2 1    
     2    1   34 1    
     3    1   35 1    
     4    1   36 1    
     5    2    3 1    
     6    2   37 1    
     7    2   38 1    
     8    3    4 1    
     9    4    9 ar   
    10    4    5 ar   
    11    5    6 ar   
    12    5   39 1    
    13    6    7 ar   
    14    6   19 1    
    15    7    8 ar   
    16    7   40 1    
    17    8    9 ar   
    18    8   41 1    
    19    9   10 1    
    20   10   11 1    
    21   11   12 1    
    22   11   42 1    
    23   11   43 1    
    24   12   17 ar   
    25   12   13 ar   
    26   13   14 ar   
    27   13   44 1    
    28   14   15 ar   
    29   14   45 1    
    30   15   16 ar   
    31   15   18 1    
    32   16   17 ar   
    33   16   46 1    
    34   17   47 1    
    35   19   20 2    
    36   19   48 1    
    37   20   33 1    
    38   20   21 1    
    39   21   22 2    
    40   21   23 am   BACKBONE|DICT|INTERRES
    41   23   24 am   BACKBONE|DICT|INTERRES
    42   23   49 1    
    43   24   25 2    
    44   24   33 1    
    45   25   26 1    
    46   26   31 ar   
    47   26   27 ar   
    48   27   28 ar   
    49   27   50 1    
    50   28   29 ar   
    51   28   51 1    
    52   29   30 ar   
    53   29   32 1    
    54   30   31 ar   
    55   30   52 1    
    56   31   53 1    
@<TRIPOS>SUBSTRUCTURE
     1 <0>         1 GROUP             0       ****    0 ROOT    
@<TRIPOS>MOLECULE
ZINC59297078
52   54    1
SMALL
USER_CHARGES


@<TRIPOS>ATOM
      1 C1         23.2318   17.9654    6.1033 C.3       1 <0>        -0.2207 
      2 C2         22.3039   17.1379    5.2137 C.3       1 <0>         0.1956 
      3 O1         21.1620   16.7218    5.9545 O.3       1 <0>        -0.3709 
      4 C3         20.0714   16.2011    5.2828 C.ar      1 <0>         0.1659 
      5 C4         19.9892   16.0254    3.8950 C.ar      1 <0>        -0.1761 
      6 C5         18.8261   15.5165    3.3201 C.ar      1 <0>        -0.0834 
      7 C6         17.7153   15.2170    4.1186 C.ar      1 <0>        -0.0102 
      8 C7         17.8080   15.3747    5.5001 C.ar      1 <0>        -0.0834 
      9 C8         18.9828   15.8262    6.0645 C.ar      1 <0>        -0.1761 
     10 N1         16.5666   14.6526    3.5378 N.am      1 <0>        -0.3779 
     11 C9         15.2797   14.7728    3.9636 C.2       1 <0>         0.5119 
     12 O2         14.9443   15.5445    4.8645 O.2       1 <0>        -0.5185 
     13 C10        14.3156   13.9070    3.2989 C.2       1 <0>        -0.1264 
     14 C11        12.9917   14.0225    3.5850 C.2       1 <0>         0.0859 
     15 C12        11.8146   13.2789    3.0611 C.ar      1 <0>        -0.1738 
     16 C13        11.8857   12.2533    2.1073 C.ar      1 <0>        -0.0628 
     17 C14        10.7307   11.6167    1.6639 C.ar      1 <0>        -0.1836 
     18 C15         9.4829   11.9799    2.1604 C.ar      1 <0>         0.1775 
     19 C16         9.4006   13.0048    3.1125 C.ar      1 <0>        -0.1836 
     20 C17        10.5557   13.6416    3.5572 C.ar      1 <0>        -0.0628 
     21 O3          8.3974   11.2837    1.6683 O.3       1 <0>        -0.3619 
     22 C18         7.1306   11.4199    2.3086 C.3       1 <0>         0.2067 
     23 C19         6.2196   10.2840    1.8636 C.ar      1 <0>        -0.0924 
     24 C20         5.9814   10.0742    0.5030 C.ar      1 <0>        -0.1015 
     25 C21         5.1617    9.0248    0.0946 C.ar      1 <0>        -0.1049 
     26 C22         4.5816    8.1888    1.0471 C.ar      1 <0>         0.0479 
     27 C23         4.8134    8.3935    2.4057 C.ar      1 <0>        -0.1049 
     28 C24         5.6315    9.4430    2.8144 C.ar      1 <0>        -0.1015 
     29 Br1         3.4681    6.7509    0.4863 Br        1 <0>        -0.1539 
     30 C25        14.8574   12.9651    2.3804 C.1       1 <0>         0.3593 
     31 N2         15.4138   12.2536    1.6646 N.1       1 <0>        -0.4843 
     32 H1         23.5560   17.3901    6.9713 H         1 <0>         0.0746 
     33 H2         24.1254   18.2674    5.5585 H         1 <0>         0.0746 
     34 H3         22.7463   18.8727    6.4628 H         1 <0>         0.0746 
     35 H4         22.0277   17.7437    4.3489 H         1 <0>         0.0350 
     36 H5         22.8305   16.2516    4.8641 H         1 <0>         0.0350 
     37 H6         20.8215   16.2497    3.2458 H         1 <0>         0.1415 
     38 H7         18.8317   15.3590    2.2552 H         1 <0>         0.1419 
     39 H8         16.9992   15.0930    6.1579 H         1 <0>         0.1419 
     40 H9         19.0212   15.8536    7.1355 H         1 <0>         0.1415 
     41 H10        16.7272   14.1228    2.6935 H         1 <0>         0.2985 
     42 H11        12.7142   14.7751    4.3126 H         1 <0>         0.1655 
     43 H12        12.8143   11.9110    1.6855 H         1 <0>         0.1417 
     44 H13        10.8057   10.8206    0.9373 H         1 <0>         0.1454 
     45 H14         8.4499   13.3175    3.5159 H         1 <0>         0.1454 
     46 H15        10.4582   14.4249    4.2957 H         1 <0>         0.1417 
     47 H16         7.2394   11.3856    3.3945 H         1 <0>         0.0444 
     48 H17         6.6728   12.3755    2.0506 H         1 <0>         0.0444 
     49 H18         6.4404   10.7165   -0.2344 H         1 <0>         0.1410 
     50 H19         4.9802    8.8579   -0.9563 H         1 <0>         0.1476 
     51 H20         4.3660    7.7393    3.1405 H         1 <0>         0.1476 
     52 H21         5.8209    9.5869    3.8692 H         1 <0>         0.1410 
@<TRIPOS>BOND
     1    1    2 1    
     2    1   32 1    
     3    1   33 1    
     4    1   34 1    
     5    2    3 1    
     6    2   35 1    
     7    2   36 1    
     8    3    4 1    
     9    4    9 ar   
    10    4    5 ar   
    11    5    6 ar   
    12    5   37 1    
    13    6    7 ar   
    14    6   38 1    
    15    7    8 ar   
    16    7   10 1    
    17    8    9 ar   
    18    8   39 1    
    19    9   40 1    
    20   10   11 am   BACKBONE|DICT|INTERRES
    21   10   41 1    
    22   11   12 2    
    23   11   13 1    
    24   13   14 2    
    25   13   30 1    
    26   14   15 1    
    27   14   42 1    
    28   15   20 ar   
    29   15   16 ar   
    30   16   17 ar   
    31   16   43 1    
    32   17   18 ar   
    33   17   44 1    
    34   18   19 ar   
    35   18   21 1    
    36   19   20 ar   
    37   19   45 1    
    38   20   46 1    
    39   21   22 1    
    40   22   23 1    
    41   22   47 1    
    42   22   48 1    
    43   23   28 ar   
    44   23   24 ar   
    45   24   25 ar   
    46   24   49 1    
    47   25   26 ar   
    48   25   50 1    
    49   26   27 ar   
    50   26   29 1    
    51   27   28 ar   
    52   27   51 1    
    53   28   52 1    
    54   30   31 3    
@<TRIPOS>SUBSTRUCTURE
     1 <0>         1 GROUP             0       ****    0 ROOT    
@<TRIPOS>MOLECULE
ZINC59399679
53   56    1
SMALL
USER_CHARGES


@<TRIPOS>ATOM
      1 C1          6.8293   15.1713    7.2196 C.3       1 <0>        -0.2213 
      2 C2          6.0261   15.5535    5.9690 C.3       1 <0>         0.1530 
      3 O1          6.0270   14.4984    5.0133 O.3       1 <0>        -0.3128 
      4 C3          7.0465   14.3162    4.1431 C.2       1 <0>         0.4286 
      5 O2          8.0340   15.0527    4.0643 O.2       1 <0>        -0.4380 
      6 C4          6.8611   13.1207    3.2961 C.2       1 <0>        -0.0409 
      7 C5          5.6218   12.4601    3.0166 C.2       1 <0>         0.0450 
      8 C6          5.7638   11.3597    2.1570 C.2       1 <0>        -0.0889 
      9 S1          7.3903   11.1207    1.6645 S.3       1 <0>         0.0937 
     10 C7          7.9292   12.4644    2.6420 C.2       1 <0>         0.0355 
     11 N1          9.2852   12.7994    2.7707 N.am      1 <0>        -0.3511 
     12 C8         10.3501   12.2558    2.1433 C.2       1 <0>         0.4865 
     13 O3         10.2787   11.3902    1.2693 O.2       1 <0>        -0.5146 
     14 C9         11.6220   12.7875    2.5944 C.2       1 <0>        -0.2209 
     15 C10        12.7728   12.2663    2.1227 C.2       1 <0>        -0.0667 
     16 C11        14.1563   12.5961    2.3869 C.2       1 <0>         0.0575 
     17 C12        15.2748   12.0295    1.8182 C.2       1 <0>        -0.1707 
     18 C13        16.3894   12.6557    2.3592 C.2       1 <0>        -0.1959 
     19 C14        15.9115   13.6500    3.2028 C.2       1 <0>         0.0525 
     20 O4         14.5437   13.5891    3.2396 O.3       1 <0>        -0.1487 
     21 C15        16.6172   14.7160    3.9772 C.ar      1 <0>        -0.0329 
     22 C16        17.9586   14.9834    3.6756 C.ar      1 <0>        -0.0877 
     23 C17        18.6413   15.9974    4.3396 C.ar      1 <0>        -0.1265 
     24 C18        17.9892   16.7373    5.3209 C.ar      1 <0>         0.0846 
     25 C19        16.6690   16.4488    5.6651 C.ar      1 <0>        -0.1265 
     26 C20        15.9750   15.4540    4.9794 C.ar      1 <0>        -0.0877 
     27 Cl1        18.7987   18.0689    6.0643 Cl        1 <0>        -0.1475 
     28 C21         4.6354   10.4872    1.6249 C.3       1 <0>        -0.1283 
     29 C22         3.3732   10.7106    2.4778 C.3       1 <0>        -0.1254 
     30 C23         3.1036   12.2064    2.6953 C.3       1 <0>        -0.1317 
     31 C24         4.2277   12.8858    3.5079 C.3       1 <0>        -0.1377 
     32 H1          6.4474   14.2527    7.6655 H         1 <0>         0.0738 
     33 H2          7.8818   15.0154    6.9872 H         1 <0>         0.0738 
     34 H3          6.7637   15.9548    7.9733 H         1 <0>         0.0738 
     35 H4          4.9910   15.7389    6.2565 H         1 <0>         0.0452 
     36 H5          6.3972   16.4812    5.5323 H         1 <0>         0.0452 
     37 H6          9.4684   13.5583    3.4098 H         1 <0>         0.3008 
     38 H7         11.6204   13.5973    3.3097 H         1 <0>         0.1357 
     39 H8         12.7146   11.4539    1.4083 H         1 <0>         0.1654 
     40 H9         15.2309   11.2515    1.0715 H         1 <0>         0.1751 
     41 H10        17.4247   12.4515    2.1225 H         1 <0>         0.1803 
     42 H11        18.4777   14.4281    2.9072 H         1 <0>         0.1462 
     43 H12        19.6659   16.2193    4.0778 H         1 <0>         0.1491 
     44 H13        16.1698   17.0220    6.4326 H         1 <0>         0.1491 
     45 H14        14.9428   15.2547    5.2305 H         1 <0>         0.1462 
     46 H15         4.4231   10.7514    0.5885 H         1 <0>         0.0784 
     47 H16         4.9117    9.4319    1.6323 H         1 <0>         0.0784 
     48 H17         2.5159   10.2402    1.9949 H         1 <0>         0.0707 
     49 H18         3.4847   10.2143    3.4439 H         1 <0>         0.0707 
     50 H19         2.9992   12.6998    1.7275 H         1 <0>         0.0691 
     51 H20         2.1499   12.3435    3.2061 H         1 <0>         0.0691 
     52 H21         4.1211   12.6219    4.5609 H         1 <0>         0.0848 
     53 H22         4.0958   13.9664    3.4483 H         1 <0>         0.0848 
@<TRIPOS>BOND
     1    1    2 1    
     2    1   32 1    
     3    1   33 1    
     4    1   34 1    
     5    2    3 1    
     6    2   35 1    
     7    2   36 1    
     8    3    4 1    
     9    4    5 2    
    10    4    6 1    
    11    6   10 2    
    12    6    7 1    
    13    7   31 1    
    14    7    8 2    
    15    8    9 1    
    16    8   28 1    
    17    9   10 1    
    18   10   11 am   BACKBONE|DICT|INTERRES
    19   11   12 am   BACKBONE|DICT|INTERRES
    20   11   37 1    
    21   12   13 2    
    22   12   14 1    
    23   14   15 2    
    24   14   38 1    
    25   15   16 1    
    26   15   39 1    
    27   16   20 1    
    28   16   17 2    
    29   17   18 1    
    30   17   40 1    
    31   18   19 2    
    32   18   41 1    
    33   19   20 1    
    34   19   21 1    
    35   21   26 ar   
    36   21   22 ar   
    37   22   23 ar   
    38   22   42 1    
    39   23   24 ar   
    40   23   43 1    
    41   24   25 ar   
    42   24   27 1    
    43   25   26 ar   
    44   25   44 1    
    45   26   45 1    
    46   28   29 1    
    47   28   46 1    
    48   28   47 1    
    49   29   30 1    
    50   29   48 1    
    51   29   49 1    
    52   30   31 1    
    53   30   50 1    
    54   30   51 1    
    55   31   52 1    
    56   31   53 1    
@<TRIPOS>SUBSTRUCTURE
     1 <0>         1 GROUP             0       ****    0 ROOT    
@<TRIPOS>MOLECULE
ZINC62039268
61   64    1
SMALL
USER_CHARGES


@<TRIPOS>ATOM
      1 C1          2.9447   11.6645    4.2707 C.3       1 <0>        -0.2210 
      2 C2          4.4451   11.6038    4.5798 C.3       1 <0>         0.1549 
      3 O1          5.1540   11.3412    3.3741 O.3       1 <0>        -0.3041 
      4 C3          6.5034   11.4554    3.3165 C.2       1 <0>         0.4288 
      5 O2          7.1906   11.8308    4.2694 O.2       1 <0>        -0.4408 
      6 C4          7.0497   11.0592    1.9903 C.2       1 <0>        -0.0323 
      7 C5          8.3550   11.4077    1.4924 C.2       1 <0>         0.0188 
      8 C6          8.6216   10.8167    0.2604 C.2       1 <0>        -0.2571 
      9 S1          7.3340    9.8977   -0.3774 S.3       1 <0>         0.0899 
     10 C7          6.3751   10.2388    1.0418 C.2       1 <0>         0.0428 
     11 N1          5.1181    9.6521    1.2162 N.am      1 <0>        -0.3585 
     12 C8          4.3523    8.9846    0.3259 C.2       1 <0>         0.4522 
     13 O3          4.5952    8.8713   -0.8740 O.2       1 <0>        -0.5082 
     14 C9          3.0656    8.3642    0.8892 C.3       1 <0>        -0.1417 
     15 C10         2.8868    6.9131    0.4729 C.ar      1 <0>        -0.2904 
     16 C11         1.9639    6.3970   -0.4130 C.ar      1 <0>        -0.1344 
     17 N2          2.1263    5.0410   -0.5737 N.pl3     1 <0>        -0.0402 
     18 C12         3.1498    4.6179    0.2531 C.ar      1 <0>         0.0813 
     19 C13         3.6461    5.7768    0.9289 C.ar      1 <0>         0.2758 
     20 C14         4.7017    5.6178    1.8412 C.ar      1 <0>        -0.2756 
     21 C15         5.2273    4.3448    2.0568 C.ar      1 <0>        -0.1684 
     22 C16         4.7284    3.2333    1.3873 C.ar      1 <0>        -0.1621 
     23 C17         3.6834    3.3387    0.4718 C.ar      1 <0>        -0.2571 
     24 C18         1.3219    4.1899   -1.4335 C.3       1 <0>        -0.0925 
     25 C19         9.4337   12.2334    2.1413 C.ar      1 <0>        -0.0306 
     26 C20         9.1395   13.3908    2.8668 C.ar      1 <0>        -0.1051 
     27 C21        10.1383   14.0568    3.5672 C.ar      1 <0>        -0.1291 
     28 C22        11.4579   13.6046    3.5108 C.ar      1 <0>        -0.0718 
     29 C23        11.7777   12.5025    2.7125 C.ar      1 <0>        -0.1291 
     30 C24        10.7696   11.8190    2.0408 C.ar      1 <0>        -0.1051 
     31 C25        12.4984   14.2849    4.3969 C.3       1 <0>        -0.0408 
     32 C26        12.4299   13.6870    5.8013 C.3       1 <0>        -0.1657 
     33 C27        13.9459   14.2464    3.8684 C.3       1 <0>        -0.1657 
     34 H1          2.5895   10.7181    3.8609 H         1 <0>         0.0742 
     35 H2          2.3732   11.8670    5.1766 H         1 <0>         0.0742 
     36 H3          2.7198   12.4540    3.5527 H         1 <0>         0.0742 
     37 H4          4.7692   12.5499    5.0180 H         1 <0>         0.0439 
     38 H5          4.6438   10.8122    5.3060 H         1 <0>         0.0439 
     39 H6          9.5355   10.8932   -0.3077 H         1 <0>         0.2215 
     40 H7          4.7148    9.8137    2.1268 H         1 <0>         0.3006 
     41 H8          3.0276    8.4531    1.9766 H         1 <0>         0.0938 
     42 H9          2.2419    8.9729    0.5166 H         1 <0>         0.0938 
     43 H10         1.1957    6.9057   -0.9742 H         1 <0>         0.1990 
     44 H11         5.1034    6.4668    2.3765 H         1 <0>         0.1861 
     45 H12         6.0364    4.2164    2.7594 H         1 <0>         0.1501 
     46 H13         5.1655    2.2632    1.5804 H         1 <0>         0.1491 
     47 H14         3.3092    2.4678   -0.0466 H         1 <0>         0.1666 
     48 H15         1.9799    3.6056   -2.0786 H         1 <0>         0.0785 
     49 H16         0.7319    3.5175   -0.8115 H         1 <0>         0.0785 
     50 H17         0.6643    4.7953   -2.0571 H         1 <0>         0.0785 
     51 H18         8.1253   13.7557    2.9276 H         1 <0>         0.1362 
     52 H19         9.8768   14.9058    4.1823 H         1 <0>         0.1311 
     53 H20        12.7857   12.1205    2.6546 H         1 <0>         0.1311 
     54 H21        11.0328   10.9266    1.4913 H         1 <0>         0.1362 
     55 H22        12.2260   15.3402    4.4644 H         1 <0>         0.0722 
     56 H23        12.7781   12.6553    5.7981 H         1 <0>         0.0616 
     57 H24        13.0776   14.2536    6.4641 H         1 <0>         0.0616 
     58 H25        11.4230   13.7107    6.2186 H         1 <0>         0.0616 
     59 H26        14.0085   14.6535    2.8646 H         1 <0>         0.0616 
     60 H27        14.6050   14.8487    4.4972 H         1 <0>         0.0616 
     61 H28        14.3528   13.2354    3.8514 H         1 <0>         0.0616 
@<TRIPOS>BOND
     1    1    2 1    
     2    1   34 1    
     3    1   35 1    
     4    1   36 1    
     5    2    3 1    
     6    2   37 1    
     7    2   38 1    
     8    3    4 1    
     9    4    5 2    
    10    4    6 1    
    11    6   10 2    
    12    6    7 1    
    13    7    8 2    
    14    7   25 1    
    15    8    9 1    
    16    8   39 1    
    17    9   10 1    
    18   10   11 am   BACKBONE|DICT|INTERRES
    19   11   12 am   BACKBONE|DICT|INTERRES
    20   11   40 1    
    21   12   13 2    
    22   12   14 1    
    23   14   15 1    
    24   14   41 1    
    25   14   42 1    
    26   15   19 ar   
    27   15   16 ar   
    28   16   17 ar   
    29   16   43 1    
    30   17   18 ar   
    31   17   24 1    
    32   18   23 ar   
    33   18   19 ar   
    34   19   20 ar   
    35   20   21 ar   
    36   20   44 1    
    37   21   22 ar   
    38   21   45 1    
    39   22   23 ar   
    40   22   46 1    
    41   23   47 1    
    42   24   48 1    
    43   24   49 1    
    44   24   50 1    
    45   25   30 ar   
    46   25   26 ar   
    47   26   27 ar   
    48   26   51 1    
    49   27   28 ar   
    50   27   52 1    
    51   28   29 ar   
    52   28   31 1    
    53   29   30 ar   
    54   29   53 1    
    55   30   54 1    
    56   31   32 1    
    57   31   33 1    
    58   31   55 1    
    59   32   56 1    
    60   32   57 1    
    61   32   58 1    
    62   33   59 1    
    63   33   60 1    
    64   33   61 1    
@<TRIPOS>SUBSTRUCTURE
     1 <0>         1 GROUP             0       ****    0 ROOT    
@<TRIPOS>MOLECULE
ZINC66198706
62   64    1
SMALL
USER_CHARGES


@<TRIPOS>ATOM
      1 C1          6.6412   11.0350    1.6737 C.3       1 <0>        -0.1781 
      2 C2          7.3390   12.2998    1.1053 C.3       1 <0>        -0.0541 
      3 H1          6.6094   13.1131    1.1285 H         1 <0>         0.1047 
      4 C3          8.5251   12.6945    1.9983 C.ar      1 <0>        -0.0731 
      5 C4          9.6537   11.8693    2.0757 C.ar      1 <0>        -0.1130 
      6 C5         10.7390   12.2381    2.8585 C.ar      1 <0>        -0.1238 
      7 C6         10.6984   13.4297    3.5902 C.ar      1 <0>        -0.0728 
      8 C7          9.5638   14.2477    3.5290 C.ar      1 <0>        -0.1238 
      9 C8          8.4801   13.8797    2.7380 C.ar      1 <0>        -0.1130 
     10 C9         11.8752   13.8391    4.4727 C.3       1 <0>        -0.0803 
     11 C10        13.1501   14.2522    3.6973 C.3       1 <0>        -0.0814 
     12 C11        13.9064   15.3732    4.4273 C.3       1 <0>        -0.1706 
     13 C12        14.0981   13.0731    3.4056 C.3       1 <0>        -0.1706 
     14 C13         7.7491   12.1507   -0.3851 C.2       1 <0>         0.4713 
     15 O1          8.8507   12.5434   -0.7717 O.2       1 <0>        -0.5030 
     16 N1          6.8304   11.6106   -1.2116 N.am      1 <0>        -0.4214 
     17 C14         7.0286   11.1397   -2.5192 C.ar      1 <0>         0.0963 
     18 C15         5.9156   11.0998   -3.3602 C.ar      1 <0>        -0.1415 
     19 C16         6.0237   10.5570   -4.6375 C.ar      1 <0>        -0.0217 
     20 C17         7.2400   10.0235   -5.0633 C.ar      1 <0>        -0.1922 
     21 C18         8.3551   10.0602   -4.2263 C.ar      1 <0>        -0.0217 
     22 C19         8.2546   10.6287   -2.9622 C.ar      1 <0>        -0.1415 
     23 S1          7.3699    9.2496   -6.6734 S.o2      1 <0>         0.8639 
     24 O2          7.9773    7.9305   -6.4637 O.2       1 <0>        -0.4893 
     25 O3          6.0689    9.3797   -7.3416 O.2       1 <0>        -0.4893 
     26 N2          8.5358   10.2250   -7.6056 N.pl3     1 <0>        -0.2011 
     27 C20         9.9373   10.1254   -7.2159 C.3       1 <0>        -0.1684 
     28 C21         8.1592   11.4864   -8.0888 C.ar      1 <0>         0.0324 
     29 C22         8.0833   12.5960   -7.2386 C.ar      1 <0>        -0.1183 
     30 C23         7.6975   13.8320   -7.7504 C.ar      1 <0>        -0.1178 
     31 C24         7.3992   13.9602   -9.1046 C.ar      1 <0>        -0.1277 
     32 C25         7.4803   12.8616   -9.9550 C.ar      1 <0>        -0.1178 
     33 C26         7.8598   11.6228   -9.4443 C.ar      1 <0>        -0.1183 
     34 H2          5.7163   10.7978    1.1465 H         1 <0>         0.0682 
     35 H3          7.2904   10.1578    1.6162 H         1 <0>         0.0682 
     36 H4          6.3776   11.1707    2.7239 H         1 <0>         0.0682 
     37 H5          9.6965   10.9440    1.5174 H         1 <0>         0.1283 
     38 H6         11.5932   11.5787    2.8928 H         1 <0>         0.1325 
     39 H7          9.5223   15.1815    4.0788 H         1 <0>         0.1325 
     40 H8          7.6120   14.5226    2.6931 H         1 <0>         0.1283 
     41 H9         11.5392   14.6565    5.1062 H         1 <0>         0.0714 
     42 H10        12.1024   13.0538    5.1887 H         1 <0>         0.0714 
     43 H11        12.8288   14.6520    2.7394 H         1 <0>         0.0737 
     44 H12        14.1664   15.0864    5.4467 H         1 <0>         0.0608 
     45 H13        14.8268   15.6353    3.9094 H         1 <0>         0.0608 
     46 H14        13.2955   16.2702    4.4682 H         1 <0>         0.0608 
     47 H15        14.4279   12.6037    4.3335 H         1 <0>         0.0608 
     48 H16        13.6279   12.3128    2.7829 H         1 <0>         0.0608 
     49 H17        14.9903   13.4050    2.8722 H         1 <0>         0.0608 
     50 H18         5.8895   11.5410   -0.8610 H         1 <0>         0.3061 
     51 H19         4.9631   11.4828   -3.0277 H         1 <0>         0.1463 
     52 H20         5.1553   10.5273   -5.2787 H         1 <0>         0.1540 
     53 H21         9.2973    9.6386   -4.5406 H         1 <0>         0.1540 
     54 H22         9.1262   10.6283   -2.3230 H         1 <0>         0.1463 
     55 H23        10.5712   10.3606   -8.0698 H         1 <0>         0.0913 
     56 H24        10.1712   10.8033   -6.3922 H         1 <0>         0.0913 
     57 H25        10.1881    9.1118   -6.8972 H         1 <0>         0.0913 
     58 H26         8.3178   12.5030   -6.1859 H         1 <0>         0.1415 
     59 H27         7.6310   14.6910   -7.1024 H         1 <0>         0.1364 
     60 H28         7.1001   14.9219   -9.4971 H         1 <0>         0.1331 
     61 H29         7.2414   12.9685  -11.0022 H         1 <0>         0.1364 
     62 H30         7.9158   10.7672  -10.1014 H         1 <0>         0.1415 
@<TRIPOS>BOND
     1    1    2 1    
     2    1   34 1    
     3    1   35 1    
     4    1   36 1    
     5    2    3 1    
     6    2    4 1    
     7    2   14 1    
     8    4    9 ar   
     9    4    5 ar   
    10    5    6 ar   
    11    5   37 1    
    12    6    7 ar   
    13    6   38 1    
    14    7    8 ar   
    15    7   10 1    
    16    8    9 ar   
    17    8   39 1    
    18    9   40 1    
    19   10   11 1    
    20   10   41 1    
    21   10   42 1    
    22   11   12 1    
    23   11   13 1    
    24   11   43 1    
    25   12   44 1    
    26   12   45 1    
    27   12   46 1    
    28   13   47 1    
    29   13   48 1    
    30   13   49 1    
    31   14   15 2    
    32   14   16 am   BACKBONE|DICT|INTERRES
    33   16   17 1    
    34   16   50 1    
    35   17   22 ar   
    36   17   18 ar   
    37   18   19 ar   
    38   18   51 1    
    39   19   20 ar   
    40   19   52 1    
    41   20   21 ar   
    42   20   23 1    
    43   21   22 ar   
    44   21   53 1    
    45   22   54 1    
    46   23   24 2    
    47   23   25 2    
    48   23   26 1    
    49   26   27 1    
    50   26   28 1    
    51   27   55 1    
    52   27   56 1    
    53   27   57 1    
    54   28   33 ar   
    55   28   29 ar   
    56   29   30 ar   
    57   29   58 1    
    58   30   31 ar   
    59   30   59 1    
    60   31   32 ar   
    61   31   60 1    
    62   32   33 ar   
    63   32   61 1    
    64   33   62 1    
@<TRIPOS>SUBSTRUCTURE
     1 <0>         1 GROUP             0       ****    0 ROOT    
