@<TRIPOS>MOLECULE
CHEMBL355330
37   40    1
SMALL
USER_CHARGES


@<TRIPOS>ATOM
      1 C1         14.1592   14.8522    4.2659 C.ar      1 <0>        -0.0960 
      2 C2         12.8278   14.4858    4.0686 C.ar      1 <0>        -0.1622 
      3 C3         12.4917   13.3913    3.2644 C.ar      1 <0>         0.0141 
      4 C4         13.5330   12.6534    2.6845 C.ar      1 <0>        -0.1365 
      5 C5         14.8681   13.0067    2.8850 C.ar      1 <0>         0.2054 
      6 C6         15.1798   14.1179    3.6647 C.ar      1 <0>        -0.2204 
      7 O1         15.8760   12.2742    2.3157 O.3       1 <0>        -0.5930 
      8 C7         11.0642   13.0206    2.9759 C.ar      1 <0>        -0.2323 
      9 C8         10.6150   12.4723    1.7811 C.ar      1 <0>        -0.1725 
     10 N1          9.2427   12.3538    1.7465 N.pl3     1 <0>         0.0117 
     11 C9          8.7487   12.8228    2.9496 C.ar      1 <0>         0.3426 
     12 C10         9.8588   13.2014    3.7657 C.ar      1 <0>        -0.0467 
     13 C11         9.4989   13.6056    5.0709 C.ar      1 <0>         0.3563 
     14 N2          8.2101   13.7058    5.4664 N.ar      1 <0>        -0.4475 
     15 C12         7.2645   13.3483    4.5688 C.ar      1 <0>         0.2092 
     16 N3          7.4573   12.8924    3.3074 N.ar      1 <0>        -0.4757 
     17 N4         10.4340   13.8536    6.0601 N.pl3     1 <0>        -0.8060 
     18 C13         8.4619   11.8276    0.6248 C.3       1 <0>        -0.0080 
     19 C14         8.8317   10.4727    0.0081 C.3       1 <0>        -0.1674 
     20 C15         8.3572   11.0191   -1.3448 C.3       1 <0>        -0.1500 
     21 C16         8.6279   12.4213   -0.7829 C.3       1 <0>        -0.1674 
     22 H1         14.3986   15.7143    4.8716 H         1 <0>         0.1333 
     23 H2         12.0532   15.1046    4.4922 H         1 <0>         0.1370 
     24 H3         13.3078   11.8089    2.0535 H         1 <0>         0.1557 
     25 H4         16.2081   14.4094    3.8201 H         1 <0>         0.1304 
     26 H5         16.7383   12.6537    2.5022 H         1 <0>         0.4466 
     27 H6         11.1823   12.1775    0.9094 H         1 <0>         0.2044 
     28 H7          6.2391   13.4131    4.9049 H         1 <0>         0.1512 
     29 H8         11.4162   13.7357    5.8569 H         1 <0>         0.3738 
     30 H9         10.1066   14.1151    6.9762 H         1 <0>         0.3738 
     31 H10         7.4171   11.8426    0.9449 H         1 <0>         0.0952 
     32 H11         9.9010   10.2542    0.0445 H         1 <0>         0.0938 
     33 H12         8.2976    9.6108    0.4105 H         1 <0>         0.0938 
     34 H13         8.9597   10.7355   -2.2093 H         1 <0>         0.0831 
     35 H14         7.3033   10.8236   -1.5535 H         1 <0>         0.0831 
     36 H15         7.9057   13.1920   -1.0483 H         1 <0>         0.0938 
     37 H16         9.6321   12.7907   -1.0033 H         1 <0>         0.0938 
@<TRIPOS>BOND
     1    1    6 ar   
     2    1    2 ar   
     3    1   22 1    
     4    2    3 ar   
     5    2   23 1    
     6    3    4 ar   
     7    3    8 1    
     8    4    5 ar   
     9    4   24 1    
    10    5    6 ar   
    11    5    7 1    
    12    6   25 1    
    13    7   26 1    
    14    8   12 ar   
    15    8    9 ar   
    16    9   10 ar   
    17    9   27 1    
    18   10   11 ar   
    19   10   18 1    
    20   11   16 ar   
    21   11   12 ar   
    22   12   13 ar   
    23   13   14 ar   
    24   13   17 1    
    25   14   15 ar   
    26   15   16 ar   
    27   15   28 1    
    28   17   29 1    
    29   17   30 1    
    30   18   21 1    
    31   18   19 1    
    32   18   31 1    
    33   19   20 1    
    34   19   32 1    
    35   19   33 1    
    36   20   21 1    
    37   20   34 1    
    38   20   35 1    
    39   21   36 1    
    40   21   37 1    
@<TRIPOS>SUBSTRUCTURE
     1 <0>         1 GROUP             0       ****    0 ROOT    
@<TRIPOS>MOLECULE
CHEMBL211508
74   80    1
SMALL
USER_CHARGES


@<TRIPOS>ATOM
      1 C1          3.7957   16.5982    5.6398 C.3       1 <0>         0.1352 
      2 O1          4.5897   15.6367    4.9535 O.3       1 <0>        -0.3506 
      3 C2          4.6013   14.3221    5.3924 C.ar      1 <0>         0.1526 
      4 C3          3.8984   13.8730    6.5244 C.ar      1 <0>        -0.1855 
      5 C4          3.9538   12.5334    6.9112 C.ar      1 <0>        -0.1055 
      6 C5          4.7179   11.6300    6.1809 C.ar      1 <0>        -0.1447 
      7 C6          5.4233   12.0618    5.0611 C.ar      1 <0>        -0.1389 
      8 C7          5.3655   13.4064    4.6507 C.ar      1 <0>         0.1012 
      9 O2          6.0328   13.8907    3.5396 O.3       1 <0>        -0.2814 
     10 C8          6.8002   13.0665    2.7527 C.ar      1 <0>         0.1436 
     11 C9          6.1994   12.2336    1.8068 C.ar      1 <0>        -0.1507 
     12 C10         6.9580   11.3833    1.0051 C.ar      1 <0>        -0.0742 
     13 C11         8.3523   11.3906    1.1572 C.ar      1 <0>        -0.0662 
     14 C12         8.9737   12.2414    2.1224 C.ar      1 <0>        -0.0530 
     15 C13         8.1839   13.0856    2.9170 C.ar      1 <0>        -0.1182 
     16 C14        10.3678   11.9771    1.9924 C.ar      1 <0>        -0.1533 
     17 N1         10.4314   11.0224    1.0095 N.pl3     1 <0>         0.1244 
     18 N2          9.2608   10.6530    0.4636 N.2       1 <0>        -0.1996 
     19 H1         11.2949   10.6109    0.6875 H         1 <0>         0.2591 
     20 C15        11.5078   12.5816    2.6553 C.ar      1 <0>         0.1257 
     21 N3         11.3367   13.5909    3.4590 N.2       1 <0>        -0.3191 
     22 C16        12.5912   14.0082    3.7498 C.ar      1 <0>         0.2263 
     23 C17        12.9373   15.1410    4.4636 C.ar      1 <0>        -0.2383 
     24 C18        14.2771   15.4632    4.5595 C.ar      1 <0>        -0.1717 
     25 C19        15.2928   14.6441    4.0641 C.ar      1 <0>         0.2167 
     26 C20        14.9576   13.4802    3.3360 C.ar      1 <0>        -0.3305 
     27 C21        13.5897   13.1975    3.1740 C.ar      1 <0>         0.1582 
     28 N4         12.8452   12.2533    2.4976 N.pl3     1 <0>        -0.2830 
     29 N5         16.6038   15.0535    4.3021 N.pl3     1 <0>        -0.4532 
     30 C22        17.7801   14.3748    3.7403 C.3       1 <0>        -0.0188 
     31 C23        19.0135   15.3088    3.6875 C.3       1 <0>        -0.1563 
     32 C24        19.3359   16.0483    5.0188 C.3       1 <0>         0.0776 
     33 C25        18.0305   16.5906    5.6248 C.3       1 <0>        -0.1563 
     34 C26        16.9531   15.5084    5.6630 C.3       1 <0>        -0.0188 
     35 N6         20.3303   17.2201    4.7780 N.4       1 <0>        -0.4394 
     36 C27        21.6316   16.6954    4.1269 C.3       1 <0>         0.0359 
     37 C28        22.6718   17.8268    3.9755 C.3       1 <0>        -0.1608 
     38 C29        22.9478   18.6010    5.2525 C.3       1 <0>        -0.1439 
     39 C30        21.6129   19.1533    5.6653 C.3       1 <0>        -0.1608 
     40 C31        20.6672   18.0191    6.0597 C.3       1 <0>         0.0359 
     41 H2          4.1322   16.7344    6.6685 H         1 <0>         0.0429 
     42 H3          3.8811   17.5614    5.1360 H         1 <0>         0.0429 
     43 H4          2.7408   16.3199    5.6409 H         1 <0>         0.0429 
     44 H5          3.3051   14.5460    7.1206 H         1 <0>         0.1417 
     45 H6          3.4164   12.1958    7.7856 H         1 <0>         0.1378 
     46 H7          4.7634   10.5959    6.4924 H         1 <0>         0.1366 
     47 H8          6.0122   11.3377    4.5176 H         1 <0>         0.1418 
     48 H9          5.1253   12.2412    1.7052 H         1 <0>         0.1495 
     49 H10         6.4839   10.7322    0.2873 H         1 <0>         0.1536 
     50 H11         8.6290   13.7339    3.6553 H         1 <0>         0.1499 
     51 H12        12.1788   15.7925    4.8635 H         1 <0>         0.2037 
     52 H13        14.5236   16.3934    5.0462 H         1 <0>         0.1602 
     53 H14        15.7138   12.8391    2.9097 H         1 <0>         0.1946 
     54 H15        17.9974   13.4728    4.3157 H         1 <0>         0.0853 
     55 H16        17.5631   14.0592    2.7200 H         1 <0>         0.0853 
     56 H17        19.8733   14.7359    3.3417 H         1 <0>         0.0910 
     57 H18        18.8321   16.0299    2.8855 H         1 <0>         0.0910 
     58 H19        19.7536   15.3189    5.7198 H         1 <0>         0.1248 
     59 H20        18.1683   17.0077    6.6176 H         1 <0>         0.0910 
     60 H21        17.6671   17.4217    5.0206 H         1 <0>         0.0910 
     61 H22        16.1131   15.8802    6.2466 H         1 <0>         0.0853 
     62 H23        17.3297   14.6578    6.2236 H         1 <0>         0.0853 
     63 H24        21.9824   15.8595    4.7356 H         1 <0>         0.1222 
     64 H25        21.2784   16.3721    3.1428 H         1 <0>         0.1222 
     65 H26        23.6299   17.4514    3.6599 H         1 <0>         0.1093 
     66 H27        22.3320   18.5156    3.2015 H         1 <0>         0.1093 
     67 H28        23.3811   17.9702    6.0294 H         1 <0>         0.1031 
     68 H29        23.6534   19.4181    5.0895 H         1 <0>         0.1031 
     69 H30        21.7388   19.8540    6.4688 H         1 <0>         0.1093 
     70 H31        21.2320   19.7167    4.8239 H         1 <0>         0.1093 
     71 H32        19.7524   18.4541    6.4646 H         1 <0>         0.1222 
     72 H33        21.1498   17.3276    6.7567 H         1 <0>         0.1222 
     73 H34        19.9052   17.8702    4.1328 H         1 <0>         0.3025 
     74 H35        13.1672   11.4437    1.9734 H         1 <0>         0.3171 
@<TRIPOS>BOND
     1    1    2 1    
     2    1   41 1    
     3    1   42 1    
     4    1   43 1    
     5    2    3 1    
     6    3    8 ar   
     7    3    4 ar   
     8    4    5 ar   
     9    4   44 1    
    10    5    6 ar   
    11    5   45 1    
    12    6    7 ar   
    13    6   46 1    
    14    7    8 ar   
    15    7   47 1    
    16    8    9 1    
    17    9   10 1    
    18   10   15 ar   
    19   10   11 ar   
    20   11   12 ar   
    21   11   48 1    
    22   12   13 ar   
    23   12   49 1    
    24   13   14 ar   
    25   13   18 ar   
    26   14   15 ar   
    27   14   16 ar   
    28   15   50 1    
    29   16   20 1    
    30   16   17 ar   
    31   17   19 1    
    32   17   18 ar   
    33   20   28 ar   
    34   20   21 ar   
    35   21   22 ar   
    36   22   27 ar   
    37   22   23 ar   
    38   23   24 ar   
    39   23   51 1    
    40   24   25 ar   
    41   24   52 1    
    42   25   26 ar   
    43   25   29 1    
    44   26   27 ar   
    45   26   53 1    
    46   27   28 ar   
    47   28   74 1    
    48   29   34 1    
    49   29   30 1    
    50   30   31 1    
    51   30   54 1    
    52   30   55 1    
    53   31   32 1    
    54   31   56 1    
    55   31   57 1    
    56   32   33 1    
    57   32   35 1    
    58   32   58 1    
    59   33   34 1    
    60   33   59 1    
    61   33   60 1    
    62   34   61 1    
    63   34   62 1    
    64   35   40 1    
    65   35   36 1    
    66   35   73 1    
    67   36   37 1    
    68   36   63 1    
    69   36   64 1    
    70   37   38 1    
    71   37   65 1    
    72   37   66 1    
    73   38   39 1    
    74   38   67 1    
    75   38   68 1    
    76   39   40 1    
    77   39   69 1    
    78   39   70 1    
    79   40   71 1    
    80   40   72 1    
@<TRIPOS>SUBSTRUCTURE
     1 <0>         1 GROUP             0       ****    0 ROOT    
@<TRIPOS>MOLECULE
CHEMBL211508
74   80    1
SMALL
USER_CHARGES


@<TRIPOS>ATOM
      1 C1         12.4333    4.2994   -3.8319 C.3       1 <0>         0.1355 
      2 O1         11.2968    5.1052   -3.5443 O.3       1 <0>        -0.3516 
      3 C2         11.1968    6.3760   -4.0819 C.ar      1 <0>         0.1516 
      4 C3         12.2046    6.9760   -4.8555 C.ar      1 <0>        -0.1855 
      5 C4         12.0394    8.2630   -5.3587 C.ar      1 <0>        -0.1052 
      6 C5         10.8703    8.9712   -5.0956 C.ar      1 <0>        -0.1436 
      7 C6          9.8591    8.3848   -4.3389 C.ar      1 <0>        -0.1380 
      8 C7         10.0132    7.0860   -3.8231 C.ar      1 <0>         0.1009 
      9 O2          9.0311    6.4327   -3.1005 O.3       1 <0>        -0.2821 
     10 C8          7.9193    7.0767   -2.6121 C.ar      1 <0>         0.1438 
     11 C9          6.6662    6.6455   -3.0392 C.ar      1 <0>        -0.1508 
     12 C10         5.4917    7.2207   -2.5561 C.ar      1 <0>        -0.0741 
     13 C11         5.5931    8.2537   -1.6131 C.ar      1 <0>        -0.0663 
     14 C12         6.8755    8.7017   -1.1673 C.ar      1 <0>        -0.0530 
     15 C13         8.0387    8.0986   -1.6672 C.ar      1 <0>        -0.1185 
     16 C14         6.5885    9.7365   -0.2344 C.ar      1 <0>        -0.1533 
     17 N1          5.2141    9.7854   -0.2022 N.pl3     1 <0>         0.1242 
     18 N2          4.5705    8.9330   -1.0152 N.2       1 <0>        -0.1996 
     19 H1          4.6961   10.4280    0.3774 H         1 <0>         0.2591 
     20 C15         7.4590   10.5660    0.5783 C.ar      1 <0>         0.1272 
     21 N3          7.0491   11.2090    1.7243 N.pl3     1 <0>        -0.2747 
     22 H2          6.1165   11.1482    2.1025 H         1 <0>         0.3191 
     23 C16         8.1438   11.8534    2.2467 C.ar      1 <0>         0.1610 
     24 C17         8.3503   12.6364    3.3799 C.ar      1 <0>        -0.3011 
     25 C18         9.6555   13.0840    3.5914 C.ar      1 <0>        -0.1274 
     26 C19        10.7312   12.7798    2.7313 C.ar      1 <0>         0.1716 
     27 C20        10.4778   12.0170    1.5798 C.ar      1 <0>        -0.2656 
     28 C21         9.1838   11.5413    1.3425 C.ar      1 <0>         0.2248 
     29 N4          8.7269   10.7648    0.3124 N.2       1 <0>        -0.3323 
     30 N5         12.0300   13.2351    2.9882 N.pl3     1 <0>        -0.4456 
     31 C22        13.1558   12.2870    2.8432 C.3       1 <0>        -0.0211 
     32 C23        14.5497   12.9441    2.7629 C.3       1 <0>        -0.1563 
     33 C24        14.8228   13.9142    3.9278 C.3       1 <0>         0.0776 
     34 C25        13.6383   14.8846    4.0639 C.3       1 <0>        -0.1563 
     35 C26        12.2781   14.1677    4.1035 C.3       1 <0>        -0.0211 
     36 N6         16.1631   14.6981    3.7439 N.4       1 <0>        -0.4396 
     37 C27        17.3672   13.7814    3.3749 C.3       1 <0>         0.0359 
     38 C28        18.6993   14.5600    3.3549 C.3       1 <0>        -0.1607 
     39 C29        18.9319   15.3920    4.6169 C.3       1 <0>        -0.1439 
     40 C30        17.7707   16.3635    4.8315 C.3       1 <0>        -0.1607 
     41 C31        16.4307   15.6312    4.9664 C.3       1 <0>         0.0359 
     42 H3         12.4448    3.9987   -4.8805 H         1 <0>         0.0425 
     43 H4         13.3704    4.8018   -3.5939 H         1 <0>         0.0425 
     44 H5         12.3875    3.3983   -3.2200 H         1 <0>         0.0425 
     45 H6         13.1244    6.4597   -5.0763 H         1 <0>         0.1414 
     46 H7         12.8238    8.7223   -5.9429 H         1 <0>         0.1381 
     47 H8         10.7501    9.9794   -5.4698 H         1 <0>         0.1376 
     48 H9          8.9553    8.9482   -4.1601 H         1 <0>         0.1428 
     49 H10         6.6065    5.8421   -3.7585 H         1 <0>         0.1495 
     50 H11         4.5281    6.8697   -2.8959 H         1 <0>         0.1536 
     51 H12         9.0126    8.4128   -1.3226 H         1 <0>         0.1498 
     52 H13         7.5550   12.8592    4.0759 H         1 <0>         0.2073 
     53 H14         9.8181   13.6617    4.4882 H         1 <0>         0.1563 
     54 H15        11.2579   11.7828    0.8721 H         1 <0>         0.1913 
     55 H16        13.1210   11.5737    3.6680 H         1 <0>         0.0866 
     56 H17        13.0396   11.6903    1.9379 H         1 <0>         0.0866 
     57 H18        15.3111   12.1670    2.7200 H         1 <0>         0.0898 
     58 H19        14.6485   13.4464    1.8013 H         1 <0>         0.0898 
     59 H20        14.8298   13.3202    4.8389 H         1 <0>         0.1260 
     60 H21        13.7306   15.4866    4.9657 H         1 <0>         0.0898 
     61 H22        13.6420   15.6213    3.2651 H         1 <0>         0.0898 
     62 H23        11.5155   14.9468    4.0768 H         1 <0>         0.0866 
     63 H24        12.1586   13.6353    5.0497 H         1 <0>         0.0866 
     64 H25        17.3857   12.9430    4.0646 H         1 <0>         0.1225 
     65 H26        17.1765   13.3949    2.3762 H         1 <0>         0.1225 
     66 H27        19.5222   13.8536    3.2618 H         1 <0>         0.1089 
     67 H28        18.7652   15.1963    2.4707 H         1 <0>         0.1089 
     68 H29        19.0431   14.7368    5.4834 H         1 <0>         0.1030 
     69 H30        19.8705   15.9413    4.5290 H         1 <0>         0.1030 
     70 H31        17.9497   16.9550    5.7310 H         1 <0>         0.1089 
     71 H32        17.7152   17.0748    4.0091 H         1 <0>         0.1089 
     72 H33        15.6502   16.3890    4.9776 H         1 <0>         0.1225 
     73 H34        16.3745   15.0532    5.8867 H         1 <0>         0.1225 
     74 H35        16.0655   15.3252    2.9569 H         1 <0>         0.3017 
@<TRIPOS>BOND
     1    1    2 1    
     2    1   42 1    
     3    1   43 1    
     4    1   44 1    
     5    2    3 1    
     6    3    8 ar   
     7    3    4 ar   
     8    4    5 ar   
     9    4   45 1    
    10    5    6 ar   
    11    5   46 1    
    12    6    7 ar   
    13    6   47 1    
    14    7    8 ar   
    15    7   48 1    
    16    8    9 1    
    17    9   10 1    
    18   10   15 ar   
    19   10   11 ar   
    20   11   12 ar   
    21   11   49 1    
    22   12   13 ar   
    23   12   50 1    
    24   13   14 ar   
    25   13   18 ar   
    26   14   15 ar   
    27   14   16 ar   
    28   15   51 1    
    29   16   20 1    
    30   16   17 ar   
    31   17   19 1    
    32   17   18 ar   
    33   20   29 ar   
    34   20   21 ar   
    35   21   22 1    
    36   21   23 ar   
    37   23   28 ar   
    38   23   24 ar   
    39   24   25 ar   
    40   24   52 1    
    41   25   26 ar   
    42   25   53 1    
    43   26   27 ar   
    44   26   30 1    
    45   27   28 ar   
    46   27   54 1    
    47   28   29 ar   
    48   30   35 1    
    49   30   31 1    
    50   31   32 1    
    51   31   55 1    
    52   31   56 1    
    53   32   33 1    
    54   32   57 1    
    55   32   58 1    
    56   33   34 1    
    57   33   36 1    
    58   33   59 1    
    59   34   35 1    
    60   34   60 1    
    61   34   61 1    
    62   35   62 1    
    63   35   63 1    
    64   36   41 1    
    65   36   37 1    
    66   36   74 1    
    67   37   38 1    
    68   37   64 1    
    69   37   65 1    
    70   38   39 1    
    71   38   66 1    
    72   38   67 1    
    73   39   40 1    
    74   39   68 1    
    75   39   69 1    
    76   40   41 1    
    77   40   70 1    
    78   40   71 1    
    79   41   72 1    
    80   41   73 1    
@<TRIPOS>SUBSTRUCTURE
     1 <0>         1 GROUP             0       ****    0 ROOT    
@<TRIPOS>MOLECULE
CHEMBL211508
74   80    1
SMALL
USER_CHARGES


@<TRIPOS>ATOM
      1 C1         12.2159    4.8348   -3.8892 C.3       1 <0>         0.1352 
      2 O1         11.0020    5.4858   -3.5317 O.3       1 <0>        -0.3517 
      3 C2         10.7652    6.7821   -3.9565 C.ar      1 <0>         0.1521 
      4 C3         11.6488    7.5057   -4.7779 C.ar      1 <0>        -0.1853 
      5 C4         11.3522    8.8136   -5.1597 C.ar      1 <0>        -0.1046 
      6 C5         10.1705    9.4112   -4.7365 C.ar      1 <0>        -0.1436 
      7 C6          9.2770    8.6984   -3.9395 C.ar      1 <0>        -0.1389 
      8 C7          9.5687    7.3841   -3.5337 C.ar      1 <0>         0.0987 
      9 O2          8.7085    6.6155   -2.7648 O.3       1 <0>        -0.2881 
     10 C8          7.6205    7.1445   -2.1081 C.ar      1 <0>         0.1311 
     11 C9          6.3764    6.5581   -2.3285 C.ar      1 <0>        -0.1591 
     12 C10         5.2159    7.0070   -1.6966 C.ar      1 <0>        -0.2243 
     13 C11         5.3578    8.0834   -0.8166 C.ar      1 <0>         0.0980 
     14 C12         6.6095    8.6922   -0.5550 C.ar      1 <0>         0.1904 
     15 C13         7.7541    8.2005   -1.2014 C.ar      1 <0>        -0.2648 
     16 C14         6.3176    9.7376    0.3832 C.ar      1 <0>        -0.1814 
     17 N1          5.0332    9.7581    0.6567 N.2       1 <0>        -0.0536 
     18 N2          4.4487    8.7732   -0.0441 N.pl3     1 <0>        -0.2236 
     19 H1          3.4562    8.6141    0.0321 H         1 <0>         0.3243 
     20 C15         7.2472   10.6824    0.9980 C.ar      1 <0>         0.1524 
     21 N3          6.8386   11.7599    1.7517 N.pl3     1 <0>        -0.2723 
     22 H2          5.8686   11.9807    1.9135 H         1 <0>         0.3173 
     23 C16         7.9675   12.3922    2.2132 C.ar      1 <0>         0.1591 
     24 C17         8.1885   13.5203    2.9983 C.ar      1 <0>        -0.3009 
     25 C18         9.5224   13.8242    3.2797 C.ar      1 <0>        -0.1316 
     26 C19        10.6113   13.0411    2.8492 C.ar      1 <0>         0.1678 
     27 C20        10.3502   11.9310    2.0218 C.ar      1 <0>        -0.2679 
     28 C21         9.0254   11.6086    1.7031 C.ar      1 <0>         0.2341 
     29 N4          8.5522   10.5851    0.9292 N.2       1 <0>        -0.3495 
     30 N5         11.9217   13.4134    3.1833 N.pl3     1 <0>        -0.4428 
     31 C22        13.0685   12.5958    2.7359 C.3       1 <0>        -0.0215 
     32 C23        14.4417   13.2901    2.8256 C.3       1 <0>        -0.1563 
     33 C24        14.7309   13.9757    4.1587 C.3       1 <0>         0.0776 
     34 C25        13.4985   14.7511    4.6318 C.3       1 <0>        -0.1563 
     35 C26        12.2038   13.9238    4.5403 C.3       1 <0>        -0.0215 
     36 N6         15.9975   14.9005    4.0609 N.4       1 <0>        -0.4395 
     37 C27        17.2352   14.1247    3.5154 C.3       1 <0>         0.0358 
     38 C28        18.5173   14.9706    3.5624 C.3       1 <0>        -0.1608 
     39 C29        18.7704   15.5663    4.9474 C.3       1 <0>        -0.1439 
     40 C30        17.6075   16.4831    5.3281 C.3       1 <0>        -0.1608 
     41 C31        16.2565   15.7315    5.3568 C.3       1 <0>         0.0358 
     42 H3         13.0857    5.4041   -3.5599 H         1 <0>         0.0428 
     43 H4         12.2573    3.8622   -3.3991 H         1 <0>         0.0428 
     44 H5         12.2807    4.6710   -4.9647 H         1 <0>         0.0428 
     45 H6         12.5756    7.0747   -5.1222 H         1 <0>         0.1420 
     46 H7         12.0417    9.3690   -5.7805 H         1 <0>         0.1388 
     47 H8          9.9516   10.4305   -5.0243 H         1 <0>         0.1379 
     48 H9          8.3591    9.1803   -3.6397 H         1 <0>         0.1423 
     49 H10         6.3130    5.7268   -3.0154 H         1 <0>         0.1733 
     50 H11         4.2594    6.5452   -1.8833 H         1 <0>         0.1703 
     51 H12         8.7240    8.6324   -1.0065 H         1 <0>         0.1938 
     52 H13         7.3750   14.1247    3.3717 H         1 <0>         0.2051 
     53 H14         9.6928   14.7092    3.8681 H         1 <0>         0.1538 
     54 H15        11.1361   11.2972    1.6408 H         1 <0>         0.1895 
     55 H16        13.0758   11.6507    3.2846 H         1 <0>         0.0865 
     56 H17        12.9338   12.3436    1.6829 H         1 <0>         0.0865 
     57 H18        15.2284   12.5862    2.5550 H         1 <0>         0.0892 
     58 H19        14.4948   14.0473    2.0650 H         1 <0>         0.0892 
     59 H20        14.8308   13.1603    4.8635 H         1 <0>         0.1255 
     60 H21        13.6503   15.0588    5.6628 H         1 <0>         0.0892 
     61 H22        13.3737   15.6780    4.0711 H         1 <0>         0.0892 
     62 H23        11.4071   14.5658    4.9042 H         1 <0>         0.0865 
     63 H24        12.2405   13.0777    5.2301 H         1 <0>         0.0865 
     64 H25        17.3346   13.1924    4.0671 H         1 <0>         0.1225 
     65 H26        17.0244   13.8864    2.4729 H         1 <0>         0.1225 
     66 H27        19.3642   14.3468    3.2708 H         1 <0>         0.1086 
     67 H28        18.4703   15.7700    2.8218 H         1 <0>         0.1086 
     68 H29        18.8906   14.7703    5.6849 H         1 <0>         0.1026 
     69 H30        19.7073   16.1274    4.9472 H         1 <0>         0.1026 
     70 H31        17.7939   16.9004    6.3184 H         1 <0>         0.1086 
     71 H32        17.5897   17.3467    4.6559 H         1 <0>         0.1086 
     72 H33        15.4464   16.4615    5.4250 H         1 <0>         0.1225 
     73 H34        16.1982   15.0532    6.2074 H         1 <0>         0.1225 
     74 H35        15.8314   15.6050    3.3553 H         1 <0>         0.3017 
@<TRIPOS>BOND
     1    1    2 1    
     2    1   42 1    
     3    1   43 1    
     4    1   44 1    
     5    2    3 1    
     6    3    8 ar   
     7    3    4 ar   
     8    4    5 ar   
     9    4   45 1    
    10    5    6 ar   
    11    5   46 1    
    12    6    7 ar   
    13    6   47 1    
    14    7    8 ar   
    15    7   48 1    
    16    8    9 1    
    17    9   10 1    
    18   10   15 ar   
    19   10   11 ar   
    20   11   12 ar   
    21   11   49 1    
    22   12   13 ar   
    23   12   50 1    
    24   13   18 ar   
    25   13   14 ar   
    26   14   15 ar   
    27   14   16 ar   
    28   15   51 1    
    29   16   17 ar   
    30   16   20 1    
    31   17   18 ar   
    32   18   19 1    
    33   20   29 ar   
    34   20   21 ar   
    35   21   22 1    
    36   21   23 ar   
    37   23   28 ar   
    38   23   24 ar   
    39   24   25 ar   
    40   24   52 1    
    41   25   26 ar   
    42   25   53 1    
    43   26   27 ar   
    44   26   30 1    
    45   27   28 ar   
    46   27   54 1    
    47   28   29 ar   
    48   30   35 1    
    49   30   31 1    
    50   31   32 1    
    51   31   55 1    
    52   31   56 1    
    53   32   33 1    
    54   32   57 1    
    55   32   58 1    
    56   33   34 1    
    57   33   36 1    
    58   33   59 1    
    59   34   35 1    
    60   34   60 1    
    61   34   61 1    
    62   35   62 1    
    63   35   63 1    
    64   36   41 1    
    65   36   37 1    
    66   36   74 1    
    67   37   38 1    
    68   37   64 1    
    69   37   65 1    
    70   38   39 1    
    71   38   66 1    
    72   38   67 1    
    73   39   40 1    
    74   39   68 1    
    75   39   69 1    
    76   40   41 1    
    77   40   70 1    
    78   40   71 1    
    79   41   72 1    
    80   41   73 1    
@<TRIPOS>SUBSTRUCTURE
     1 <0>         1 GROUP             0       ****    0 ROOT    
@<TRIPOS>MOLECULE
CHEMBL418270
44   47    1
SMALL
USER_CHARGES


@<TRIPOS>ATOM
      1 C1          9.5562   11.1703    1.2653 C.ar      1 <0>        -0.0937 
      2 C2          8.5719   12.0576    1.6974 C.ar      1 <0>        -0.1592 
      3 C3          8.9118   13.1255    2.5275 C.ar      1 <0>         0.2301 
      4 C4         10.2401   13.3138    2.9159 C.ar      1 <0>        -0.1564 
      5 C5         11.2404   12.4396    2.4639 C.ar      1 <0>         0.0516 
      6 C6         10.8830   11.3640    1.6469 C.ar      1 <0>        -0.1440 
      7 N1         12.6118   12.5847    2.7278 N.am      1 <0>        -0.3810 
      8 C7         13.2542   13.4630    3.5297 C.2       1 <0>         0.4747 
      9 O1         12.7020   14.2450    4.3063 O.2       1 <0>        -0.4971 
     10 C8         14.7590   13.4748    3.3948 C.ar      1 <0>        -0.1323 
     11 C9         15.4992   14.6142    3.7481 C.ar      1 <0>        -0.0552 
     12 C10        16.8935   14.5948    3.6673 C.ar      1 <0>        -0.1835 
     13 C11        17.5197   13.4208    3.2482 C.ar      1 <0>        -0.0034 
     14 N2         16.8320   12.3149    2.8648 N.ar      1 <0>        -0.2556 
     15 C12        15.4775   12.3574    2.9396 C.ar      1 <0>         0.0163 
     16 N3          7.9270   14.0327    2.9313 N.pl3     1 <0>        -0.6076 
     17 C13         7.4857   14.3000    4.2305 C.ar      1 <0>         0.3620 
     18 N4          7.8749   13.4797    5.2420 N.ar      1 <0>        -0.3199 
     19 C14         7.3500   13.7400    6.4647 C.ar      1 <0>         0.0703 
     20 C15         6.4823   14.8091    6.6951 C.ar      1 <0>        -0.2666 
     21 C16         6.1577   15.6319    5.6052 C.ar      1 <0>         0.1598 
     22 N5          6.6568   15.3658    4.3624 N.ar      1 <0>        -0.2991 
     23 C17         5.2583   16.8248    5.7260 C.ar      1 <0>        -0.0927 
     24 C18         4.6322   17.4049    4.6074 C.ar      1 <0>        -0.0604 
     25 C19         3.8133   18.5258    4.7506 C.ar      1 <0>        -0.1817 
     26 C20         3.6328   19.0559    6.0265 C.ar      1 <0>        -0.0082 
     27 N6          4.2231   18.5321    7.1275 N.ar      1 <0>        -0.2505 
     28 C21         5.0146   17.4412    6.9651 C.ar      1 <0>         0.0110 
     29 H1          9.2946   10.3313    0.6358 H         1 <0>         0.1381 
     30 H2          7.5458   11.9061    1.3957 H         1 <0>         0.1478 
     31 H3         10.4697   14.1623    3.5393 H         1 <0>         0.1514 
     32 H4         11.6310   10.6681    1.2914 H         1 <0>         0.1386 
     33 H5         13.1920   11.9533    2.1974 H         1 <0>         0.3016 
     34 H6         15.0019   15.5050    4.1025 H         1 <0>         0.1451 
     35 H7         17.4751   15.4614    3.9451 H         1 <0>         0.1481 
     36 H8         18.5968   13.3644    3.1773 H         1 <0>         0.1615 
     37 H9         14.9730   11.4497    2.6480 H         1 <0>         0.1668 
     38 H10         7.5059   14.5913    2.2058 H         1 <0>         0.3308 
     39 H11         7.6174   13.0630    7.2659 H         1 <0>         0.1673 
     40 H12         6.0717   14.9586    7.6821 H         1 <0>         0.1620 
     41 H13         4.7718   16.9868    3.6209 H         1 <0>         0.1410 
     42 H14         3.3303   18.9690    3.8926 H         1 <0>         0.1474 
     43 H15         3.0053   19.9207    6.1832 H         1 <0>         0.1611 
     44 H16         5.4723   17.0788    7.8733 H         1 <0>         0.1637 
@<TRIPOS>BOND
     1    1    6 ar   
     2    1    2 ar   
     3    1   29 1    
     4    2    3 ar   
     5    2   30 1    
     6    3    4 ar   
     7    3   16 1    
     8    4    5 ar   
     9    4   31 1    
    10    5    6 ar   
    11    5    7 1    
    12    6   32 1    
    13    7    8 am   BACKBONE|DICT|INTERRES
    14    7   33 1    
    15    8    9 2    
    16    8   10 1    
    17   10   15 ar   
    18   10   11 ar   
    19   11   12 ar   
    20   11   34 1    
    21   12   13 ar   
    22   12   35 1    
    23   13   14 ar   
    24   13   36 1    
    25   14   15 ar   
    26   15   37 1    
    27   16   17 1    
    28   16   38 1    
    29   17   22 ar   
    30   17   18 ar   
    31   18   19 ar   
    32   19   20 ar   
    33   19   39 1    
    34   20   21 ar   
    35   20   40 1    
    36   21   22 ar   
    37   21   23 1    
    38   23   28 ar   
    39   23   24 ar   
    40   24   25 ar   
    41   24   41 1    
    42   25   26 ar   
    43   25   42 1    
    44   26   27 ar   
    45   26   43 1    
    46   27   28 ar   
    47   28   44 1    
@<TRIPOS>SUBSTRUCTURE
     1 <0>         1 GROUP             0       ****    0 ROOT    
@<TRIPOS>MOLECULE
CHEMBL169467
51   54    1
SMALL
USER_CHARGES


@<TRIPOS>ATOM
      1 C1          6.1302    7.6299   -4.9780 C.3       1 <0>         0.1389 
      2 O1          5.6745    7.8750   -3.6519 O.3       1 <0>        -0.3677 
      3 C2          6.5263    8.4797   -2.7480 C.ar      1 <0>         0.1551 
      4 C3          7.8393    8.8796   -3.0423 C.ar      1 <0>        -0.1771 
      5 C4          8.6234    9.4845   -2.0643 C.ar      1 <0>        -0.0839 
      6 C5          8.1031    9.6994   -0.7866 C.ar      1 <0>        -0.1093 
      7 C6          6.8006    9.2997   -0.4866 C.ar      1 <0>        -0.0839 
      8 C7          6.0193    8.6933   -1.4662 C.ar      1 <0>        -0.1771 
      9 C8          8.9566   10.3664    0.2839 C.3       1 <0>        -0.1046 
     10 C9          8.6191   11.8567    0.5295 C.3       1 <0>        -0.0040 
     11 C10         8.8558   12.8094   -0.6679 C.3       1 <0>         0.1322 
     12 O2          7.8591   12.6529   -1.6565 O.3       1 <0>        -0.6549 
     13 N1          9.3791   12.3394    1.6890 N.pl3     1 <0>        -0.0303 
     14 C11        10.7509   12.4605    1.7603 C.ar      1 <0>        -0.1642 
     15 C12        11.1640   13.0066    2.9668 C.ar      1 <0>        -0.2296 
     16 C13         9.9414   13.1625    3.7333 C.ar      1 <0>        -0.0452 
     17 C14         8.8549   12.7695    2.8937 C.ar      1 <0>         0.3507 
     18 N2          7.5563   12.8088    3.2267 N.ar      1 <0>        -0.4823 
     19 C15         7.3305   13.2484    4.4884 C.ar      1 <0>         0.2122 
     20 N3          8.2513   13.6249    5.4042 N.ar      1 <0>        -0.4447 
     21 C16         9.5489   13.5593    5.0308 C.ar      1 <0>         0.3571 
     22 N4         10.4598   13.8531    6.0307 N.pl3     1 <0>        -0.8067 
     23 C17        12.5784   13.3960    3.2824 C.ar      1 <0>         0.0123 
     24 C18        12.8791   14.5164    4.0659 C.ar      1 <0>        -0.1436 
     25 C19        14.2017   14.9175    4.2590 C.ar      1 <0>        -0.0924 
     26 C20        15.2429   14.1870    3.6876 C.ar      1 <0>        -0.2188 
     27 C21        14.9659   13.0359    2.9548 C.ar      1 <0>         0.2021 
     28 C22        13.6404   12.6525    2.7483 C.ar      1 <0>        -0.1541 
     29 O3         15.9953   12.2889    2.4423 O.3       1 <0>        -0.5958 
     30 H1          6.3972    8.5558   -5.4872 H         1 <0>         0.0399 
     31 H2          6.9860    6.9546   -4.9874 H         1 <0>         0.0399 
     32 H3          5.3329    7.1588   -5.5513 H         1 <0>         0.0399 
     33 H4          8.2669    8.7299   -4.0214 H         1 <0>         0.1367 
     34 H5          9.6313    9.7886   -2.3041 H         1 <0>         0.1318 
     35 H6          6.3939    9.4595    0.5017 H         1 <0>         0.1318 
     36 H7          5.0104    8.3878   -1.2315 H         1 <0>         0.1367 
     37 H8          8.8259    9.8036    1.2111 H         1 <0>         0.0897 
     38 H9         10.0136   10.2536    0.0400 H         1 <0>         0.0897 
     39 H10         7.5632   11.9249    0.7988 H         1 <0>         0.1024 
     40 H11         8.8112   13.8463   -0.3340 H         1 <0>         0.0637 
     41 H12         9.8392   12.6580   -1.1163 H         1 <0>         0.0637 
     42 H13         8.1692   12.0092   -2.3003 H         1 <0>         0.4273 
     43 H14        11.3434   12.1866    0.8982 H         1 <0>         0.2075 
     44 H15         6.2980   13.2881    4.8053 H         1 <0>         0.1519 
     45 H16        11.4482   13.7600    5.8476 H         1 <0>         0.3751 
     46 H17        10.1077   14.1099    6.9392 H         1 <0>         0.3751 
     47 H18        12.0876   15.1297    4.4673 H         1 <0>         0.1427 
     48 H19        14.4186   15.8024    4.8400 H         1 <0>         0.1357 
     49 H20        16.2635   14.5044    3.8440 H         1 <0>         0.1310 
     50 H21        13.4377   11.7796    2.1486 H         1 <0>         0.1499 
     51 H22        16.8557   12.6679    2.6403 H         1 <0>         0.4475 
@<TRIPOS>BOND
     1    1    2 1    
     2    1   30 1    
     3    1   31 1    
     4    1   32 1    
     5    2    3 1    
     6    3    8 ar   
     7    3    4 ar   
     8    4    5 ar   
     9    4   33 1    
    10    5    6 ar   
    11    5   34 1    
    12    6    7 ar   
    13    6    9 1    
    14    7    8 ar   
    15    7   35 1    
    16    8   36 1    
    17    9   10 1    
    18    9   37 1    
    19    9   38 1    
    20   10   11 1    
    21   10   13 1    
    22   10   39 1    
    23   11   12 1    
    24   11   40 1    
    25   11   41 1    
    26   12   42 1    
    27   13   17 ar   
    28   13   14 ar   
    29   14   15 ar   
    30   14   43 1    
    31   15   16 ar   
    32   15   23 1    
    33   16   21 ar   
    34   16   17 ar   
    35   17   18 ar   
    36   18   19 ar   
    37   19   20 ar   
    38   19   44 1    
    39   20   21 ar   
    40   21   22 1    
    41   22   45 1    
    42   22   46 1    
    43   23   28 ar   
    44   23   24 ar   
    45   24   25 ar   
    46   24   47 1    
    47   25   26 ar   
    48   25   48 1    
    49   26   27 ar   
    50   26   49 1    
    51   27   28 ar   
    52   27   29 1    
    53   28   50 1    
    54   29   51 1    
@<TRIPOS>SUBSTRUCTURE
     1 <0>         1 GROUP             0       ****    0 ROOT    
@<TRIPOS>MOLECULE
CHEMBL169467
51   54    1
SMALL
USER_CHARGES


@<TRIPOS>ATOM
      1 C1         14.7294   15.2980    4.8631 C.3       1 <0>         0.1388 
      2 O1         14.6039   14.1963    3.9710 O.3       1 <0>        -0.3677 
      3 C2         13.3462   13.7252    3.6488 C.ar      1 <0>         0.1552 
      4 C3         12.1460   14.2537    4.1488 C.ar      1 <0>        -0.1771 
      5 C4         10.9203   13.7217    3.7513 C.ar      1 <0>        -0.0839 
      6 C5         10.8850   12.6438    2.8652 C.ar      1 <0>        -0.1095 
      7 C6         12.0750   12.1224    2.3605 C.ar      1 <0>        -0.0839 
      8 C7         13.2970   12.6548    2.7572 C.ar      1 <0>        -0.1771 
      9 C8          9.5749   11.9236    2.5770 C.3       1 <0>        -0.1043 
     10 C9          8.8147   12.3461    1.2928 C.3       1 <0>        -0.0041 
     11 C10         9.6320   12.1496   -0.0025 C.3       1 <0>         0.1320 
     12 O2          8.9534   12.6537   -1.1358 O.3       1 <0>        -0.6554 
     13 N1          7.5731   11.5602    1.2081 N.pl3     1 <0>        -0.0303 
     14 C11         7.5067   10.1846    1.2645 C.ar      1 <0>        -0.1642 
     15 C12         6.2069    9.7235    1.2442 C.ar      1 <0>        -0.2295 
     16 C13         5.3996   10.9051    1.0356 C.ar      1 <0>        -0.0452 
     17 C14         6.2826   12.0317    1.0378 C.ar      1 <0>         0.3508 
     18 N2          5.9089   13.3132    0.9058 N.ar      1 <0>        -0.4823 
     19 C15         4.5716   13.4711    0.7428 C.ar      1 <0>         0.2122 
     20 N3          3.6227   12.5056    0.6962 N.ar      1 <0>        -0.4447 
     21 C16         4.0401   11.2247    0.8367 C.ar      1 <0>         0.3566 
     22 N4          3.0581   10.2475    0.7354 N.pl3     1 <0>        -0.8047 
     23 C17         5.8221    8.3018    1.4855 C.ar      1 <0>         0.0125 
     24 C18         4.6806    7.9684    2.2226 C.ar      1 <0>        -0.1619 
     25 C19         4.3616    6.6326    2.4695 C.ar      1 <0>        -0.0954 
     26 C20         5.1869    5.6177    1.9850 C.ar      1 <0>        -0.2196 
     27 C21         6.3334    5.9388    1.2612 C.ar      1 <0>         0.2060 
     28 C22         6.6450    7.2742    1.0062 C.ar      1 <0>        -0.1364 
     29 O3          7.1575    4.9419    0.8130 O.3       1 <0>        -0.5928 
     30 H1         14.2170   16.1832    4.4823 H         1 <0>         0.0399 
     31 H2         14.3450   15.0535    5.8538 H         1 <0>         0.0399 
     32 H3         15.7835   15.5515    4.9752 H         1 <0>         0.0399 
     33 H4         12.1492   15.0729    4.8494 H         1 <0>         0.1367 
     34 H5         10.0048   14.1163    4.1673 H         1 <0>         0.1318 
     35 H6         12.0579   11.2705    1.6949 H         1 <0>         0.1318 
     36 H7         14.2116   12.2285    2.3723 H         1 <0>         0.1367 
     37 H8          9.8145   10.8615    2.5349 H         1 <0>         0.0888 
     38 H9          8.9216   12.0229    3.4465 H         1 <0>         0.0888 
     39 H10         8.5504   13.4002    1.3930 H         1 <0>         0.1025 
     40 H11        10.5934   12.6537    0.0638 H         1 <0>         0.0646 
     41 H12         9.8433   11.0906   -0.1488 H         1 <0>         0.0646 
     42 H13         9.5732   12.7294   -1.8796 H         1 <0>         0.4275 
     43 H14         8.4157    9.6141    1.3956 H         1 <0>         0.2075 
     44 H15         4.2223   14.4872    0.6301 H         1 <0>         0.1519 
     45 H16         3.3240    9.2751    0.7954 H         1 <0>         0.3744 
     46 H17         2.1050   10.5337    0.5753 H         1 <0>         0.3744 
     47 H18         4.0608    8.7423    2.6501 H         1 <0>         0.1371 
     48 H19         3.4880    6.3853    3.0550 H         1 <0>         0.1339 
     49 H20         4.9475    4.5842    2.1876 H         1 <0>         0.1309 
     50 H21         7.5381    7.5164    0.4488 H         1 <0>         0.1553 
     51 H22         7.9330    5.2733    0.3547 H         1 <0>         0.4470 
@<TRIPOS>BOND
     1    1    2 1    
     2    1   30 1    
     3    1   31 1    
     4    1   32 1    
     5    2    3 1    
     6    3    8 ar   
     7    3    4 ar   
     8    4    5 ar   
     9    4   33 1    
    10    5    6 ar   
    11    5   34 1    
    12    6    7 ar   
    13    6    9 1    
    14    7    8 ar   
    15    7   35 1    
    16    8   36 1    
    17    9   10 1    
    18    9   37 1    
    19    9   38 1    
    20   10   11 1    
    21   10   13 1    
    22   10   39 1    
    23   11   12 1    
    24   11   40 1    
    25   11   41 1    
    26   12   42 1    
    27   13   17 ar   
    28   13   14 ar   
    29   14   15 ar   
    30   14   43 1    
    31   15   16 ar   
    32   15   23 1    
    33   16   21 ar   
    34   16   17 ar   
    35   17   18 ar   
    36   18   19 ar   
    37   19   20 ar   
    38   19   44 1    
    39   20   21 ar   
    40   21   22 1    
    41   22   45 1    
    42   22   46 1    
    43   23   28 ar   
    44   23   24 ar   
    45   24   25 ar   
    46   24   47 1    
    47   25   26 ar   
    48   25   48 1    
    49   26   27 ar   
    50   26   49 1    
    51   27   28 ar   
    52   27   29 1    
    53   28   50 1    
    54   29   51 1    
@<TRIPOS>SUBSTRUCTURE
     1 <0>         1 GROUP             0       ****    0 ROOT    
@<TRIPOS>MOLECULE
CHEMBL211662
70   76    1
SMALL
USER_CHARGES


@<TRIPOS>ATOM
      1 C1         12.8083    7.5127   -5.2813 C.ar      1 <0>        -0.1423 
      2 C2         11.6571    8.2951   -5.2298 C.ar      1 <0>        -0.1065 
      3 C3         10.5449    7.8391   -4.5283 C.ar      1 <0>        -0.1553 
      4 C4         10.5890    6.6005   -3.8667 C.ar      1 <0>         0.1301 
      5 C5         11.7463    5.8257   -3.9356 C.ar      1 <0>        -0.1553 
      6 C6         12.8604    6.2795   -4.6351 C.ar      1 <0>        -0.1065 
      7 O1          9.5277    6.0667   -3.1660 O.3       1 <0>        -0.2985 
      8 C7          8.4312    6.8228   -2.8220 C.ar      1 <0>         0.1396 
      9 C8          7.1912    6.4609   -3.3426 C.ar      1 <0>        -0.1500 
     10 C9          6.0303    7.1593   -3.0146 C.ar      1 <0>        -0.0732 
     11 C10         6.1282    8.2327   -2.1182 C.ar      1 <0>        -0.0651 
     12 C11         7.3965    8.6068   -1.5667 C.ar      1 <0>        -0.0561 
     13 C12         8.5514    7.8976   -1.9357 C.ar      1 <0>        -0.1135 
     14 C13         7.0946    9.6977   -0.7002 C.ar      1 <0>        -0.1505 
     15 N1          5.7333    9.8561   -0.8249 N.pl3     1 <0>         0.1261 
     16 H1          5.2155   10.5700   -0.3354 H         1 <0>         0.2596 
     17 N2          5.1075    9.0169   -1.6634 N.2       1 <0>        -0.1981 
     18 C14         7.9088   10.5012    0.1963 C.ar      1 <0>         0.1248 
     19 N3          7.3931   11.1704    1.2825 N.pl3     1 <0>        -0.2740 
     20 H2          6.4195   11.1530    1.5446 H         1 <0>         0.3191 
     21 C15         8.4351   11.8107    1.9076 C.ar      1 <0>         0.1613 
     22 C16         8.5262   12.6291    3.0313 C.ar      1 <0>        -0.3010 
     23 C17         9.8002   13.0960    3.3546 C.ar      1 <0>        -0.1269 
     24 C18        10.9604   12.7744    2.6172 C.ar      1 <0>         0.1723 
     25 C19        10.8250   11.9484    1.4871 C.ar      1 <0>        -0.2656 
     26 C20         9.5613   11.4607    1.1317 C.ar      1 <0>         0.2243 
     27 N4          9.2054   10.6543    0.0815 N.2       1 <0>        -0.3318 
     28 N5         12.2123   13.3113    2.9523 N.pl3     1 <0>        -0.4461 
     29 C21        13.4265   12.4717    2.8310 C.3       1 <0>        -0.0210 
     30 C22        14.7607   13.2503    2.8000 C.3       1 <0>        -0.1563 
     31 C23        14.8977   14.1951    4.0021 C.3       1 <0>         0.0776 
     32 C24        13.6539   15.0830    4.0719 C.3       1 <0>        -0.1563 
     33 C25        12.3551   14.2526    4.0842 C.3       1 <0>        -0.0210 
     34 N6         16.2220   15.0355    3.9995 N.4       1 <0>        -0.4396 
     35 C26        17.4773   14.1940    3.6220 C.3       1 <0>         0.0359 
     36 C27        18.7543   15.0477    3.6643 C.3       1 <0>        -0.1607 
     37 C28        18.9491   15.6980    5.0362 C.3       1 <0>        -0.1439 
     38 C29        17.7388   16.5710    5.3773 C.3       1 <0>        -0.1607 
     39 C30        16.4116   15.7869    5.3532 C.3       1 <0>         0.0359 
     40 H3         13.6665    7.8635   -5.8318 H         1 <0>         0.1360 
     41 H4         11.6269    9.2536   -5.7290 H         1 <0>         0.1376 
     42 H5          9.6547    8.4496   -4.5024 H         1 <0>         0.1412 
     43 H6         11.7790    4.8667   -3.4359 H         1 <0>         0.1412 
     44 H7         13.7541    5.6758   -4.6790 H         1 <0>         0.1376 
     45 H8          7.1326    5.6176   -4.0148 H         1 <0>         0.1499 
     46 H9          5.0755    6.8692   -3.4282 H         1 <0>         0.1547 
     47 H10         9.5170    8.1645   -1.5335 H         1 <0>         0.1497 
     48 H11         7.6591   12.8898    3.6209 H         1 <0>         0.2076 
     49 H12         9.8619   13.7201    4.2319 H         1 <0>         0.1567 
     50 H13        11.6661   11.6922    0.8664 H         1 <0>         0.1915 
     51 H14        13.4270   11.7493    3.6504 H         1 <0>         0.0866 
     52 H15        13.4032   11.8768    1.9201 H         1 <0>         0.0866 
     53 H16        15.5807   12.5337    2.7692 H         1 <0>         0.0900 
     54 H17        14.8572   13.7954    1.8615 H         1 <0>         0.0900 
     55 H18        14.8315   13.5506    4.8659 H         1 <0>         0.1260 
     56 H19        13.6779   15.7091    4.9574 H         1 <0>         0.0900 
     57 H20        13.6354   15.8103    3.2644 H         1 <0>         0.0900 
     58 H21        11.5377   14.9740    4.0647 H         1 <0>         0.0866 
     59 H22        12.2594   13.6977    5.0202 H         1 <0>         0.0866 
     60 H23        17.5395   13.3393    4.2942 H         1 <0>         0.1225 
     61 H24        17.3410   13.8523    2.5972 H         1 <0>         0.1225 
     62 H25        19.6184   14.4224    3.4328 H         1 <0>         0.1089 
     63 H26        18.7209   15.8129    2.8874 H         1 <0>         0.1089 
     64 H27        19.0936   14.9309    5.7988 H         1 <0>         0.1031 
     65 H28        19.8598   16.2994    5.0374 H         1 <0>         0.1031 
     66 H29        17.8773   17.0181    6.3625 H         1 <0>         0.1089 
     67 H30        17.6974   17.4025    4.6742 H         1 <0>         0.1089 
     68 H31        15.5975   16.5031    5.4536 H         1 <0>         0.1225 
     69 H32        16.3538   15.0541    6.1585 H         1 <0>         0.1225 
     70 H33        16.1463   15.7462    3.2842 H         1 <0>         0.3017 
@<TRIPOS>BOND
     1    1    6 ar   
     2    1    2 ar   
     3    1   40 1    
     4    2    3 ar   
     5    2   41 1    
     6    3    4 ar   
     7    3   42 1    
     8    4    5 ar   
     9    4    7 1    
    10    5    6 ar   
    11    5   43 1    
    12    6   44 1    
    13    7    8 1    
    14    8   13 ar   
    15    8    9 ar   
    16    9   10 ar   
    17    9   45 1    
    18   10   11 ar   
    19   10   46 1    
    20   11   17 ar   
    21   11   12 ar   
    22   12   13 ar   
    23   12   14 ar   
    24   13   47 1    
    25   14   15 ar   
    26   14   18 1    
    27   15   16 1    
    28   15   17 ar   
    29   18   27 ar   
    30   18   19 ar   
    31   19   20 1    
    32   19   21 ar   
    33   21   26 ar   
    34   21   22 ar   
    35   22   23 ar   
    36   22   48 1    
    37   23   24 ar   
    38   23   49 1    
    39   24   25 ar   
    40   24   28 1    
    41   25   26 ar   
    42   25   50 1    
    43   26   27 ar   
    44   28   33 1    
    45   28   29 1    
    46   29   30 1    
    47   29   51 1    
    48   29   52 1    
    49   30   31 1    
    50   30   53 1    
    51   30   54 1    
    52   31   32 1    
    53   31   34 1    
    54   31   55 1    
    55   32   33 1    
    56   32   56 1    
    57   32   57 1    
    58   33   58 1    
    59   33   59 1    
    60   34   39 1    
    61   34   35 1    
    62   34   70 1    
    63   35   36 1    
    64   35   60 1    
    65   35   61 1    
    66   36   37 1    
    67   36   62 1    
    68   36   63 1    
    69   37   38 1    
    70   37   64 1    
    71   37   65 1    
    72   38   39 1    
    73   38   66 1    
    74   38   67 1    
    75   39   68 1    
    76   39   69 1    
@<TRIPOS>SUBSTRUCTURE
     1 <0>         1 GROUP             0       ****    0 ROOT    
@<TRIPOS>MOLECULE
CHEMBL211662
70   76    1
SMALL
USER_CHARGES


@<TRIPOS>ATOM
      1 C1         19.4401    6.4508   -2.0802 C.ar      1 <0>        -0.1419 
      2 C2         18.9523    7.2240   -3.1314 C.ar      1 <0>        -0.1067 
      3 C3         17.6912    6.9537   -3.6562 C.ar      1 <0>        -0.1550 
      4 C4         16.9257    5.8970   -3.1420 C.ar      1 <0>         0.1275 
      5 C5         17.4166    5.1418   -2.0765 C.ar      1 <0>        -0.1550 
      6 C6         18.6750    5.4175   -1.5440 C.ar      1 <0>        -0.1067 
      7 O1         15.6607    5.5857   -3.5988 O.3       1 <0>        -0.3054 
      8 C7         15.2488    5.8784   -4.8778 C.ar      1 <0>         0.1273 
      9 C8         15.9812    5.4872   -6.0030 C.ar      1 <0>        -0.1577 
     10 C9         15.5354    5.7371   -7.3057 C.ar      1 <0>        -0.2239 
     11 C10        14.3069    6.3914   -7.4356 C.ar      1 <0>         0.1001 
     12 C11        13.5455    6.7999   -6.3148 C.ar      1 <0>         0.1890 
     13 C12        14.0275    6.5277   -5.0247 C.ar      1 <0>        -0.2613 
     14 C13        12.3988    7.4561   -6.8705 C.ar      1 <0>        -0.1813 
     15 N1         12.4401    7.4213   -8.1823 N.2       1 <0>        -0.0505 
     16 H1         13.7949    6.6448   -9.5093 H         1 <0>         0.3249 
     17 N2         13.5711    6.7844   -8.5343 N.pl3     1 <0>        -0.2231 
     18 C14        11.3426    8.1394   -6.1362 C.ar      1 <0>         0.1517 
     19 N3         10.4954    9.0677   -6.6992 N.pl3     1 <0>        -0.2699 
     20 H2         10.5124    9.2975   -7.6791 H         1 <0>         0.3178 
     21 C15         9.7578    9.6238   -5.6778 C.ar      1 <0>         0.1591 
     22 C16         8.8273   10.6594   -5.5973 C.ar      1 <0>        -0.3002 
     23 C17         8.3708   10.9859   -4.3146 C.ar      1 <0>        -0.1313 
     24 C18         8.7486   10.2823   -3.1561 C.ar      1 <0>         0.1686 
     25 C19         9.6307    9.1961   -3.2880 C.ar      1 <0>        -0.2684 
     26 C20        10.1690    8.8973   -4.5407 C.ar      1 <0>         0.2343 
     27 N4         11.1232    7.9709   -4.8567 N.2       1 <0>        -0.3530 
     28 N5          8.3262   10.7173   -1.8947 N.pl3     1 <0>        -0.4431 
     29 C21         8.8313   10.0885   -0.6638 C.3       1 <0>        -0.0214 
     30 C22         8.7658   10.9899    0.5786 C.3       1 <0>        -0.1563 
     31 C23         7.3736   11.5951    0.8484 C.3       1 <0>         0.0776 
     32 C24         6.7791   12.1065   -0.4873 C.3       1 <0>        -0.1563 
     33 C25         6.9270   11.1173   -1.6652 C.3       1 <0>        -0.0214 
     34 N6          7.4920   12.7538    1.8897 N.4       1 <0>        -0.4395 
     35 C26         8.1101   12.2574    3.2279 C.3       1 <0>         0.0358 
     36 C27         8.2825   13.4444    4.1934 C.3       1 <0>        -0.1607 
     37 C28         6.9595   14.1803    4.4454 C.3       1 <0>        -0.1439 
     38 C29         6.3073   14.6149    3.1250 C.3       1 <0>        -0.1607 
     39 C30         6.1222   13.4367    2.1516 C.3       1 <0>         0.0358 
     40 H3         20.4158    6.6571   -1.6621 H         1 <0>         0.1363 
     41 H4         19.5432    8.0319   -3.5383 H         1 <0>         0.1381 
     42 H5         17.3137    7.5698   -4.4592 H         1 <0>         0.1423 
     43 H6         16.8134    4.3469   -1.6596 H         1 <0>         0.1423 
     44 H7         19.0555    4.8362   -0.7168 H         1 <0>         0.1381 
     45 H8         16.9144    4.9645   -5.8552 H         1 <0>         0.1736 
     46 H9         16.1095    5.4223   -8.1647 H         1 <0>         0.1715 
     47 H10        13.4648    6.8162   -4.1513 H         1 <0>         0.1938 
     48 H11         8.5289   11.2344   -6.4596 H         1 <0>         0.2058 
     49 H12         7.7324   11.8519   -4.2282 H         1 <0>         0.1542 
     50 H13         9.9528    8.6153   -2.4390 H         1 <0>         0.1892 
     51 H14         8.3192    9.1410   -0.4920 H         1 <0>         0.0864 
     52 H15         9.8861    9.8515   -0.7777 H         1 <0>         0.0864 
     53 H16         9.1153   10.4205    1.4406 H         1 <0>         0.0894 
     54 H17         9.5088   11.7801    0.4483 H         1 <0>         0.0894 
     55 H18         6.7292   10.7963    1.2229 H         1 <0>         0.1255 
     56 H19         5.7308   12.3789   -0.3691 H         1 <0>         0.0894 
     57 H20         7.2709   13.0349   -0.7836 H         1 <0>         0.0894 
     58 H21         6.5039   11.5902   -2.5499 H         1 <0>         0.0864 
     59 H22         6.3307   10.2202   -1.4894 H         1 <0>         0.0864 
     60 H23         7.4641   11.4692    3.6218 H         1 <0>         0.1224 
     61 H24         9.0992   11.8511    3.0259 H         1 <0>         0.1224 
     62 H25         8.6885   13.0857    5.1413 H         1 <0>         0.1086 
     63 H26         9.0239   14.1359    3.7919 H         1 <0>         0.1086 
     64 H27         6.2778   13.5307    4.9982 H         1 <0>         0.1027 
     65 H28         7.1317   15.0500    5.0820 H         1 <0>         0.1027 
     66 H29         5.3377   15.0693    3.3305 H         1 <0>         0.1086 
     67 H30         6.9085   15.3921    2.6498 H         1 <0>         0.1086 
     68 H31         5.7556   13.8407    1.2102 H         1 <0>         0.1224 
     69 H32         5.4364   12.6745    2.5260 H         1 <0>         0.1224 
     70 H33         8.1152   13.4446    1.4976 H         1 <0>         0.3018 
@<TRIPOS>BOND
     1    1    6 ar   
     2    1    2 ar   
     3    1   40 1    
     4    2    3 ar   
     5    2   41 1    
     6    3    4 ar   
     7    3   42 1    
     8    4    5 ar   
     9    4    7 1    
    10    5    6 ar   
    11    5   43 1    
    12    6   44 1    
    13    7    8 1    
    14    8   13 ar   
    15    8    9 ar   
    16    9   10 ar   
    17    9   45 1    
    18   10   11 ar   
    19   10   46 1    
    20   11   12 ar   
    21   11   17 ar   
    22   12   13 ar   
    23   12   14 ar   
    24   13   47 1    
    25   14   18 1    
    26   14   15 ar   
    27   15   17 ar   
    28   16   17 1    
    29   18   27 ar   
    30   18   19 ar   
    31   19   20 1    
    32   19   21 ar   
    33   21   26 ar   
    34   21   22 ar   
    35   22   23 ar   
    36   22   48 1    
    37   23   24 ar   
    38   23   49 1    
    39   24   25 ar   
    40   24   28 1    
    41   25   26 ar   
    42   25   50 1    
    43   26   27 ar   
    44   28   33 1    
    45   28   29 1    
    46   29   30 1    
    47   29   51 1    
    48   29   52 1    
    49   30   31 1    
    50   30   53 1    
    51   30   54 1    
    52   31   32 1    
    53   31   34 1    
    54   31   55 1    
    55   32   33 1    
    56   32   56 1    
    57   32   57 1    
    58   33   58 1    
    59   33   59 1    
    60   34   39 1    
    61   34   35 1    
    62   34   70 1    
    63   35   36 1    
    64   35   60 1    
    65   35   61 1    
    66   36   37 1    
    67   36   62 1    
    68   36   63 1    
    69   37   38 1    
    70   37   64 1    
    71   37   65 1    
    72   38   39 1    
    73   38   66 1    
    74   38   67 1    
    75   39   68 1    
    76   39   69 1    
@<TRIPOS>SUBSTRUCTURE
     1 <0>         1 GROUP             0       ****    0 ROOT    
@<TRIPOS>MOLECULE
CHEMBL455164
48   51    1
SMALL
USER_CHARGES


@<TRIPOS>ATOM
      1 C1          7.7840   11.0892    0.7137 C.3       1 <0>        -0.0653 
      2 S1          9.5450   11.4726    0.4960 S.3       1 <0>        -0.2245 
      3 C2         10.0976   12.3062    1.9505 C.ar      1 <0>         0.3035 
      4 N1          9.1476   12.6375    2.8624 N.ar      1 <0>        -0.3387 
      5 C3          9.6474   13.1712    3.9773 C.ar      1 <0>         0.2999 
      6 C4         11.0121   13.4541    4.2138 C.ar      1 <0>        -0.1085 
      7 C5         11.0431   13.8538    5.5757 C.ar      1 <0>        -0.0965 
      8 N2          9.8419   13.8732    6.1064 N.2       1 <0>        -0.2717 
      9 N3          8.9779   13.4655    5.1510 N.pl3     1 <0>         0.0035 
     10 C6          7.5563   13.2830    5.4583 C.3       1 <0>         0.0171 
     11 C7          7.2001   11.7815    5.6089 C.3       1 <0>        -0.0066 
     12 C8          5.7075   11.4755    5.6177 C.ar      1 <0>        -0.0939 
     13 C9          4.8391   12.1743    6.4627 C.ar      1 <0>        -0.1085 
     14 C10         3.4846   11.8539    6.4864 C.ar      1 <0>        -0.1287 
     15 C11         3.0000   10.8395    5.6637 C.ar      1 <0>        -0.1190 
     16 C12         3.8574   10.1376    4.8209 C.ar      1 <0>        -0.1287 
     17 C13         5.2123   10.4555    4.7980 C.ar      1 <0>        -0.1085 
     18 Br1         8.0314   11.0552    7.2642 Br        1 <0>        -0.1798 
     19 C14        11.9053   13.1366    3.1718 C.ar      1 <0>         0.4687 
     20 N4         11.4353   12.5235    2.0507 N.ar      1 <0>        -0.4434 
     21 N5         13.2875   13.2630    3.2622 N.pl3     1 <0>        -0.4571 
     22 C15        14.0719   12.0446    3.5072 C.3       1 <0>        -0.0168 
     23 C16        15.3909   12.0929    2.7039 C.3       1 <0>        -0.1337 
     24 C17        16.2579   13.2902    3.1103 C.3       1 <0>        -0.1294 
     25 C18        15.3904   14.5502    3.1268 C.3       1 <0>        -0.1337 
     26 C19        14.0249   14.3817    3.8683 C.3       1 <0>        -0.0168 
     27 H1          7.2020   12.0032    0.8301 H         1 <0>         0.0988 
     28 H2          7.4103   10.5488   -0.1556 H         1 <0>         0.0988 
     29 H3          7.6407   10.4630    1.5960 H         1 <0>         0.0988 
     30 H4         11.9247   14.0443    6.1677 H         1 <0>         0.2052 
     31 H5          7.3055   13.8343    6.3666 H         1 <0>         0.1114 
     32 H6          6.9861   13.7279    4.6417 H         1 <0>         0.1114 
     33 H7          7.6408   11.2257    4.7806 H         1 <0>         0.1189 
     34 H8          5.2176   12.9348    7.1318 H         1 <0>         0.1371 
     35 H9          2.8170   12.3681    7.1614 H         1 <0>         0.1345 
     36 H10         1.9546   10.5720    5.7101 H         1 <0>         0.1323 
     37 H11         3.4759    9.3357    4.2066 H         1 <0>         0.1345 
     38 H12         5.8774    9.8928    4.1580 H         1 <0>         0.1371 
     39 H13        14.2803   11.9544    4.5754 H         1 <0>         0.0667 
     40 H14        13.4778   11.1697    3.2648 H         1 <0>         0.0667 
     41 H15        15.9710   11.1954    2.8644 H         1 <0>         0.0743 
     42 H16        15.1663   12.1116    1.6356 H         1 <0>         0.0743 
     43 H17        16.7307   13.1195    4.0644 H         1 <0>         0.0671 
     44 H18        17.0903   13.4078    2.4178 H         1 <0>         0.0671 
     45 H19        15.9349   15.4221    3.5017 H         1 <0>         0.0743 
     46 H20        15.2317   14.6960    2.0650 H         1 <0>         0.0743 
     47 H21        13.4513   15.3040    3.7716 H         1 <0>         0.0667 
     48 H22        14.1682   14.1925    4.9338 H         1 <0>         0.0667 
@<TRIPOS>BOND
     1    1    2 1    
     2    1   27 1    
     3    1   28 1    
     4    1   29 1    
     5    2    3 1    
     6    3   20 ar   
     7    3    4 ar   
     8    4    5 ar   
     9    5    9 ar   
    10    5    6 ar   
    11    6    7 ar   
    12    6   19 ar   
    13    7    8 ar   
    14    7   30 1    
    15    8    9 ar   
    16    9   10 1    
    17   10   11 1    
    18   10   31 1    
    19   10   32 1    
    20   11   12 1    
    21   11   18 1    
    22   11   33 1    
    23   12   17 ar   
    24   12   13 ar   
    25   13   14 ar   
    26   13   34 1    
    27   14   15 ar   
    28   14   35 1    
    29   15   16 ar   
    30   15   36 1    
    31   16   17 ar   
    32   16   37 1    
    33   17   38 1    
    34   19   20 ar   
    35   19   21 1    
    36   21   26 1    
    37   21   22 1    
    38   22   23 1    
    39   22   39 1    
    40   22   40 1    
    41   23   24 1    
    42   23   41 1    
    43   23   42 1    
    44   24   25 1    
    45   24   43 1    
    46   24   44 1    
    47   25   26 1    
    48   25   45 1    
    49   25   46 1    
    50   26   47 1    
    51   26   48 1    
@<TRIPOS>SUBSTRUCTURE
     1 <0>         1 GROUP             0       ****    0 ROOT    
@<TRIPOS>MOLECULE
CHEMBL455164
48   51    1
SMALL
USER_CHARGES


@<TRIPOS>ATOM
      1 C1          5.6679    8.9092    4.1077 C.3       1 <0>        -0.0653 
      2 S1          4.2600    9.7593    4.8647 S.3       1 <0>        -0.2245 
      3 C2          4.8350   11.2917    5.5331 C.ar      1 <0>         0.3035 
      4 N1          6.1130   11.6705    5.2682 N.ar      1 <0>        -0.3387 
      5 C3          6.4383   12.8499    5.8116 C.ar      1 <0>         0.2998 
      6 C4          5.5889   13.6642    6.5976 C.ar      1 <0>        -0.1085 
      7 C5          6.4171   14.7835    6.9418 C.ar      1 <0>        -0.0964 
      8 N2          7.6272   14.6531    6.4650 N.2       1 <0>        -0.2717 
      9 N3          7.6589   13.5009    5.7671 N.pl3     1 <0>         0.0036 
     10 C6          8.9066   13.0527    5.1605 C.3       1 <0>         0.0171 
     11 C7          9.6104   14.1230    4.3100 C.3       1 <0>        -0.0066 
     12 C8         10.9466   13.6186    3.7728 C.ar      1 <0>        -0.0939 
     13 C9         10.9909   12.7370    2.6872 C.ar      1 <0>        -0.1085 
     14 C10        12.2143   12.2536    2.2335 C.ar      1 <0>        -0.1287 
     15 C11        13.3918   12.6502    2.8644 C.ar      1 <0>        -0.1190 
     16 C12        13.3583   13.5195    3.9502 C.ar      1 <0>        -0.1287 
     17 C13        12.1346   13.9989    4.4059 C.ar      1 <0>        -0.1085 
     18 Br1         8.3605   14.6637    2.8564 Br        1 <0>        -0.1798 
     19 C14         4.2968   13.1421    6.8635 C.ar      1 <0>         0.4687 
     20 N4          3.9289   11.9671    6.2776 N.ar      1 <0>        -0.4434 
     21 N5          3.3640   13.7495    7.7185 N.pl3     1 <0>        -0.4570 
     22 C15         3.7067   14.9554    8.4998 C.3       1 <0>        -0.0168 
     23 C16         2.5411   15.6834    9.1990 C.3       1 <0>        -0.1337 
     24 C17         1.6692   14.7349   10.0143 C.3       1 <0>        -0.1294 
     25 C18         1.1994   13.6181    9.0884 C.3       1 <0>        -0.1337 
     26 C19         2.3719   12.8905    8.4109 C.3       1 <0>        -0.0168 
     27 H1          6.4280    8.7004    4.8614 H         1 <0>         0.0988 
     28 H2          5.3489    7.9618    3.6757 H         1 <0>         0.0988 
     29 H3          6.1102    9.5197    3.3210 H         1 <0>         0.0988 
     30 H4          6.1834   15.6344    7.5616 H         1 <0>         0.2052 
     31 H5          9.5511   12.6992    5.9654 H         1 <0>         0.1114 
     32 H6          8.6741   12.2082    4.5126 H         1 <0>         0.1114 
     33 H7          9.7924   15.0231    4.8976 H         1 <0>         0.1189 
     34 H8         10.0814   12.4149    2.2008 H         1 <0>         0.1371 
     35 H9         12.2528   11.5637    1.4018 H         1 <0>         0.1345 
     36 H10        14.3381   12.2677    2.5110 H         1 <0>         0.1322 
     37 H11        14.2748   13.8121    4.4416 H         1 <0>         0.1345 
     38 H12        12.1190   14.6523    5.2623 H         1 <0>         0.1371 
     39 H13         4.4900   14.7042    9.2176 H         1 <0>         0.0667 
     40 H14         4.1130   15.6829    7.8002 H         1 <0>         0.0667 
     41 H15         2.9495   16.4496    9.8590 H         1 <0>         0.0743 
     42 H16         1.9518   16.2322    8.4627 H         1 <0>         0.0743 
     43 H17         2.2401   14.3194   10.8470 H         1 <0>         0.0671 
     44 H18         0.8186   15.2651   10.4429 H         1 <0>         0.0671 
     45 H19         0.6257   12.8902    9.6623 H         1 <0>         0.0743 
     46 H20         0.5188   13.9920    8.3240 H         1 <0>         0.0743 
     47 H21         1.9290   12.1953    7.6965 H         1 <0>         0.0667 
     48 H22         2.9025   12.2760    9.1399 H         1 <0>         0.0667 
@<TRIPOS>BOND
     1    1    2 1    
     2    1   27 1    
     3    1   28 1    
     4    1   29 1    
     5    2    3 1    
     6    3   20 ar   
     7    3    4 ar   
     8    4    5 ar   
     9    5    9 ar   
    10    5    6 ar   
    11    6    7 ar   
    12    6   19 ar   
    13    7    8 ar   
    14    7   30 1    
    15    8    9 ar   
    16    9   10 1    
    17   10   11 1    
    18   10   31 1    
    19   10   32 1    
    20   11   12 1    
    21   11   18 1    
    22   11   33 1    
    23   12   17 ar   
    24   12   13 ar   
    25   13   14 ar   
    26   13   34 1    
    27   14   15 ar   
    28   14   35 1    
    29   15   16 ar   
    30   15   36 1    
    31   16   17 ar   
    32   16   37 1    
    33   17   38 1    
    34   19   20 ar   
    35   19   21 1    
    36   21   26 1    
    37   21   22 1    
    38   22   23 1    
    39   22   39 1    
    40   22   40 1    
    41   23   24 1    
    42   23   41 1    
    43   23   42 1    
    44   24   25 1    
    45   24   43 1    
    46   24   44 1    
    47   25   26 1    
    48   25   45 1    
    49   25   46 1    
    50   26   47 1    
    51   26   48 1    
@<TRIPOS>SUBSTRUCTURE
     1 <0>         1 GROUP             0       ****    0 ROOT    
@<TRIPOS>MOLECULE
CHEMBL459850
52   55    1
SMALL
USER_CHARGES


@<TRIPOS>ATOM
      1 C1          7.0200   11.7882    1.7613 C.3       1 <0>        -0.1260 
      2 C2          8.4681   12.1304    2.0910 C.ar      1 <0>        -0.0502 
      3 C3          9.4767   11.7208    1.2176 C.ar      1 <0>        -0.1220 
      4 C4         10.8113   11.9826    1.5109 C.ar      1 <0>        -0.1086 
      5 C5         11.1664   12.6828    2.6625 C.ar      1 <0>         0.0212 
      6 C6         10.1603   13.1153    3.5422 C.ar      1 <0>        -0.1077 
      7 C7          8.8153   12.8249    3.2650 C.ar      1 <0>         0.0220 
      8 N1          7.8268   13.1209    4.2188 N.am      1 <0>        -0.1127 
      9 C8          7.6277   12.0662    5.2377 C.3       1 <0>        -0.0119 
     10 C9          6.2164   12.0759    5.7694 C.ar      1 <0>        -0.2874 
     11 C10         5.5784   10.9746    6.3376 C.ar      1 <0>         0.1056 
     12 N2          4.3128   11.0397    6.8112 N.ar      1 <0>        -0.3403 
     13 C11         3.6860   12.2289    6.7177 C.ar      1 <0>         0.4285 
     14 N3          4.2106   13.3629    6.1847 N.ar      1 <0>        -0.3970 
     15 C12         5.4935   13.2699    5.7124 C.ar      1 <0>         0.2484 
     16 N4          6.1107   14.3937    5.0971 N.am      1 <0>        -0.0126 
     17 C13         7.2324   14.3599    4.3008 C.2       1 <0>         0.4414 
     18 O1          7.6404   15.3347    3.6559 O.2       1 <0>        -0.5186 
     19 C14         5.4865   15.7125    5.3306 C.3       1 <0>        -0.1584 
     20 N5          2.3855   12.2531    7.1972 N.pl3     1 <0>        -0.8628 
     21 N6         12.5466   12.8547    2.8511 N.am      1 <0>        -0.3862 
     22 C15        13.2261   13.6869    3.6660 C.2       1 <0>         0.5488 
     23 O2         12.6954   14.4606    4.4646 O.2       1 <0>        -0.4855 
     24 C16        14.7357   13.6600    3.5025 C.ar      1 <0>        -0.1653 
     25 C17        15.3897   12.6246    2.8082 C.ar      1 <0>        -0.0710 
     26 C18        16.7779   12.6130    2.6906 C.ar      1 <0>        -0.1386 
     27 C19        17.5407   13.6190    3.2662 C.ar      1 <0>        -0.0697 
     28 C20        16.9243   14.6563    3.9661 C.ar      1 <0>        -0.1102 
     29 C21        15.5233   14.6797    4.0647 C.ar      1 <0>        -0.0496 
     30 C22        17.8084   15.6904    4.6524 C.3       1 <0>         0.4664 
     31 F1         18.5827   16.2936    3.7519 F         1 <0>        -0.1741 
     32 F2         17.1042   16.6241    5.2906 F         1 <0>        -0.1741 
     33 F3         18.5808   15.0573    5.5406 F         1 <0>        -0.1741 
     34 H1          6.4145   12.6957    1.7432 H         1 <0>         0.0748 
     35 H2          6.9187   11.2972    0.7916 H         1 <0>         0.0748 
     36 H3          6.6041   11.1305    2.5274 H         1 <0>         0.0748 
     37 H4          9.2335   11.1784    0.3149 H         1 <0>         0.1404 
     38 H5         11.5759   11.6431    0.8288 H         1 <0>         0.1411 
     39 H6         10.4076   13.6267    4.4590 H         1 <0>         0.1451 
     40 H7          7.8903   11.0844    4.8391 H         1 <0>         0.0788 
     41 H8          8.3107   12.2560    6.0671 H         1 <0>         0.0788 
     42 H9          6.0726   10.0181    6.4232 H         1 <0>         0.1658 
     43 H10         5.1178   15.7903    6.3542 H         1 <0>         0.0859 
     44 H11         6.1756   16.5451    5.1857 H         1 <0>         0.0859 
     45 H12         4.6403   15.8486    4.6547 H         1 <0>         0.0859 
     46 H13         2.0482   11.3952    7.6365 H         1 <0>         0.4053 
     47 H14         1.9140   13.1357    7.2976 H         1 <0>         0.4053 
     48 H15        13.1112   12.2993    2.2287 H         1 <0>         0.3013 
     49 H16        14.8407   11.8078    2.3598 H         1 <0>         0.1450 
     50 H17        17.2865   11.8361    2.1450 H         1 <0>         0.1444 
     51 H18        18.6182   13.5848    3.1750 H         1 <0>         0.1487 
     52 H19        15.0463   15.4805    4.6145 H         1 <0>         0.1505 
@<TRIPOS>BOND
     1    1    2 1    
     2    1   34 1    
     3    1   35 1    
     4    1   36 1    
     5    2    7 ar   
     6    2    3 ar   
     7    3    4 ar   
     8    3   37 1    
     9    4    5 ar   
    10    4   38 1    
    11    5    6 ar   
    12    5   21 1    
    13    6    7 ar   
    14    6   39 1    
    15    7    8 1    
    16    8   17 am   BACKBONE|DICT|INTERRES
    17    8    9 1    
    18    9   10 1    
    19    9   40 1    
    20    9   41 1    
    21   10   15 ar   
    22   10   11 ar   
    23   11   12 ar   
    24   11   42 1    
    25   12   13 ar   
    26   13   14 ar   
    27   13   20 1    
    28   14   15 ar   
    29   15   16 1    
    30   16   17 am   BACKBONE|DICT|INTERRES
    31   16   19 1    
    32   17   18 2    
    33   19   43 1    
    34   19   44 1    
    35   19   45 1    
    36   20   46 1    
    37   20   47 1    
    38   21   22 am   BACKBONE|DICT|INTERRES
    39   21   48 1    
    40   22   23 2    
    41   22   24 1    
    42   24   29 ar   
    43   24   25 ar   
    44   25   26 ar   
    45   25   49 1    
    46   26   27 ar   
    47   26   50 1    
    48   27   28 ar   
    49   27   51 1    
    50   28   29 ar   
    51   28   30 1    
    52   29   52 1    
    53   30   31 1    
    54   30   32 1    
    55   30   33 1    
@<TRIPOS>SUBSTRUCTURE
     1 <0>         1 GROUP             0       ****    0 ROOT    
@<TRIPOS>MOLECULE
CHEMBL270492
44   47    1
SMALL
USER_CHARGES


@<TRIPOS>ATOM
      1 C1          7.6389   12.6592   -0.4298 C.ar      1 <0>        -0.1472 
      2 C2          7.7677   11.3160   -0.7843 C.ar      1 <0>        -0.0953 
      3 C3          8.6498   10.4964   -0.0815 C.ar      1 <0>        -0.1701 
      4 C4          9.4038   11.0262    0.9633 C.ar      1 <0>         0.2403 
      5 C5          9.2988   12.3686    1.3078 C.ar      1 <0>        -0.1424 
      6 C6          8.4004   13.1852    0.6168 C.ar      1 <0>        -0.0983 
      7 C7         10.1431   12.8921    2.4548 C.3       1 <0>         0.0742 
      8 N1         11.5675   12.6693    2.1880 N.pl3     1 <0>        -0.5489 
      9 C8         12.5413   13.1022    3.0939 C.ar      1 <0>         0.4064 
     10 C9         13.9154   12.9746    2.8057 C.ar      1 <0>        -0.1693 
     11 C10        14.7599   12.3486    1.8536 C.ar      1 <0>        -0.1057 
     12 N2         16.0171   12.6421    2.0655 N.2       1 <0>        -0.2774 
     13 N3         16.0901   13.4605    3.1385 N.pl3     1 <0>         0.0127 
     14 C11        14.8121   13.6369    3.6723 C.ar      1 <0>         0.3298 
     15 N4         14.4319   14.2547    4.7943 N.ar      1 <0>        -0.4346 
     16 C12        13.1102   14.1709    5.0476 C.ar      1 <0>         0.2247 
     17 N5         12.1404   13.6865    4.2511 N.ar      1 <0>        -0.4395 
     18 C13        17.4433   13.8785    3.5896 C.3       1 <0>        -0.0016 
     19 C14        17.6348   15.4058    3.8203 C.3       1 <0>         0.0628 
     20 C15        19.0834   15.8743    3.9739 C.ar      1 <0>        -0.1184 
     21 C16        19.8798   15.3866    5.0179 C.ar      1 <0>        -0.0824 
     22 C17        21.1336   15.9445    5.2625 C.ar      1 <0>        -0.1693 
     23 C18        21.5906   16.9914    4.4652 C.ar      1 <0>         0.2236 
     24 C19        20.8253   17.4535    3.3980 C.ar      1 <0>        -0.1693 
     25 C20        19.5728   16.8957    3.1508 C.ar      1 <0>        -0.0824 
     26 F1         22.7948   17.5516    4.7165 F         1 <0>        -0.2165 
     27 Cl1        16.7736   15.9995    5.2706 Cl        1 <0>        -0.2122 
     28 F2         10.2631   10.2539    1.6564 F         1 <0>        -0.2073 
     29 H1          6.9496   13.2930   -0.9693 H         1 <0>         0.1370 
     30 H2          7.1848   10.9117   -1.5983 H         1 <0>         0.1389 
     31 H3          8.7576    9.4535   -0.3402 H         1 <0>         0.1488 
     32 H4          8.2780   14.2238    0.8856 H         1 <0>         0.1344 
     33 H5          9.9515   13.9510    2.6253 H         1 <0>         0.0925 
     34 H6          9.8548   12.3703    3.3698 H         1 <0>         0.0925 
     35 H7         11.8302   12.0227    1.4572 H         1 <0>         0.2910 
     36 H8         14.4596   11.6836    1.0587 H         1 <0>         0.1949 
     37 H9         12.8314   14.3698    6.0611 H         1 <0>         0.1605 
     38 H10        17.7106   13.2995    4.4645 H         1 <0>         0.1116 
     39 H11        18.1615   13.5681    2.8270 H         1 <0>         0.1116 
     40 H12        17.2197   15.9095    2.9518 H         1 <0>         0.1132 
     41 H13        19.5127   14.6067    5.6697 H         1 <0>         0.1436 
     42 H14        21.7469   15.5788    6.0746 H         1 <0>         0.1497 
     43 H15        21.2001   18.2523    2.7755 H         1 <0>         0.1497 
     44 H16        18.9728   17.2896    2.3429 H         1 <0>         0.1436 
@<TRIPOS>BOND
     1    1    6 ar   
     2    1    2 ar   
     3    1   29 1    
     4    2    3 ar   
     5    2   30 1    
     6    3    4 ar   
     7    3   31 1    
     8    4    5 ar   
     9    4   28 1    
    10    5    6 ar   
    11    5    7 1    
    12    6   32 1    
    13    7    8 1    
    14    7   33 1    
    15    7   34 1    
    16    8    9 1    
    17    8   35 1    
    18    9   17 ar   
    19    9   10 ar   
    20   10   14 ar   
    21   10   11 ar   
    22   11   12 ar   
    23   11   36 1    
    24   12   13 ar   
    25   13   14 ar   
    26   13   18 1    
    27   14   15 ar   
    28   15   16 ar   
    29   16   17 ar   
    30   16   37 1    
    31   18   19 1    
    32   18   38 1    
    33   18   39 1    
    34   19   20 1    
    35   19   27 1    
    36   19   40 1    
    37   20   25 ar   
    38   20   21 ar   
    39   21   22 ar   
    40   21   41 1    
    41   22   23 ar   
    42   22   42 1    
    43   23   24 ar   
    44   23   26 1    
    45   24   25 ar   
    46   24   43 1    
    47   25   44 1    
@<TRIPOS>SUBSTRUCTURE
     1 <0>         1 GROUP             0       ****    0 ROOT    
@<TRIPOS>MOLECULE
CHEMBL270492
44   47    1
SMALL
USER_CHARGES


@<TRIPOS>ATOM
      1 C1         22.0062   18.6036    4.4729 C.ar      1 <0>        -0.1458 
      2 C2         22.6004   18.1845    5.6629 C.ar      1 <0>        -0.0963 
      3 C3         22.2337   16.9632    6.2293 C.ar      1 <0>        -0.1680 
      4 C4         21.2667   16.1654    5.6188 C.ar      1 <0>         0.2171 
      5 C5         20.6804   16.5741    4.4140 C.ar      1 <0>        -0.1395 
      6 C6         21.0572   17.7959    3.8438 C.ar      1 <0>        -0.0766 
      7 C7         19.7430   15.6416    3.6643 C.3       1 <0>         0.0738 
      8 N1         18.3835   15.6127    4.2145 N.pl3     1 <0>        -0.5525 
      9 C8         17.5108   14.5854    3.8062 C.ar      1 <0>         0.4102 
     10 C9         16.1213   14.6540    4.0418 C.ar      1 <0>        -0.1682 
     11 C10        15.1682   15.4791    4.7033 C.ar      1 <0>        -0.1044 
     12 N2         13.9602   14.9820    4.6154 N.2       1 <0>        -0.2772 
     13 N3         14.0390   13.8168    3.9376 N.pl3     1 <0>         0.0131 
     14 C11        15.3452   13.5679    3.5520 C.ar      1 <0>         0.3290 
     15 N4         15.8257   12.4914    2.9167 N.ar      1 <0>        -0.4335 
     16 C12        17.1767   12.5102    2.8026 C.ar      1 <0>         0.2269 
     17 N5         18.0291   13.4803    3.2033 N.ar      1 <0>        -0.4515 
     18 C13        12.8686   12.9350    3.8369 C.3       1 <0>        -0.0014 
     19 C14        11.6097   13.6080    3.2276 C.3       1 <0>         0.0623 
     20 C15        10.5775   12.6551    2.6005 C.ar      1 <0>        -0.1182 
     21 C16         9.2288   12.6433    2.9990 C.ar      1 <0>        -0.0826 
     22 C17         8.2977   11.8538    2.3320 C.ar      1 <0>        -0.1693 
     23 C18         8.7044   11.0615    1.2660 C.ar      1 <0>         0.2233 
     24 C19        10.0364   11.0512    0.8724 C.ar      1 <0>        -0.1693 
     25 C20        10.9725   11.8379    1.5383 C.ar      1 <0>        -0.0826 
     26 F1          7.8021   10.2929    0.6155 F         1 <0>        -0.2166 
     27 Cl1        10.8666   14.6537    4.4642 Cl        1 <0>        -0.2110 
     28 F2         20.9190   14.9876    6.1882 F         1 <0>        -0.2239 
     29 H1         22.2991   19.5448    4.0301 H         1 <0>         0.1390 
     30 H2         23.3454   18.8040    6.1425 H         1 <0>         0.1390 
     31 H3         22.7019   16.6269    7.1432 H         1 <0>         0.1472 
     32 H4         20.6334   18.1104    2.9011 H         1 <0>         0.1466 
     33 H5         19.6856   15.9260    2.6119 H         1 <0>         0.0930 
     34 H6         20.1925   14.6480    3.6762 H         1 <0>         0.0930 
     35 H7         17.9805   16.4785    4.5382 H         1 <0>         0.2958 
     36 H8         15.3444   16.4001    5.2411 H         1 <0>         0.1965 
     37 H9         17.6333   11.6644    2.3127 H         1 <0>         0.1598 
     38 H10        13.1591   12.0467    3.2734 H         1 <0>         0.1110 
     39 H11        12.6596   12.6229    4.8559 H         1 <0>         0.1110 
     40 H12        11.9290   14.2536    2.4142 H         1 <0>         0.1143 
     41 H13         8.8638   13.2468    3.8147 H         1 <0>         0.1437 
     42 H14         7.2637   11.8464    2.6428 H         1 <0>         0.1496 
     43 H15        10.3402   10.4027    0.0648 H         1 <0>         0.1496 
     44 H16        12.0028   11.8163    1.2137 H         1 <0>         0.1437 
@<TRIPOS>BOND
     1    1    6 ar   
     2    1    2 ar   
     3    1   29 1    
     4    2    3 ar   
     5    2   30 1    
     6    3    4 ar   
     7    3   31 1    
     8    4    5 ar   
     9    4   28 1    
    10    5    6 ar   
    11    5    7 1    
    12    6   32 1    
    13    7    8 1    
    14    7   33 1    
    15    7   34 1    
    16    8    9 1    
    17    8   35 1    
    18    9   17 ar   
    19    9   10 ar   
    20   10   14 ar   
    21   10   11 ar   
    22   11   12 ar   
    23   11   36 1    
    24   12   13 ar   
    25   13   14 ar   
    26   13   18 1    
    27   14   15 ar   
    28   15   16 ar   
    29   16   17 ar   
    30   16   37 1    
    31   18   19 1    
    32   18   38 1    
    33   18   39 1    
    34   19   20 1    
    35   19   27 1    
    36   19   40 1    
    37   20   25 ar   
    38   20   21 ar   
    39   21   22 ar   
    40   21   41 1    
    41   22   23 ar   
    42   22   42 1    
    43   23   24 ar   
    44   23   26 1    
    45   24   25 ar   
    46   24   43 1    
    47   25   44 1    
@<TRIPOS>SUBSTRUCTURE
     1 <0>         1 GROUP             0       ****    0 ROOT    
@<TRIPOS>MOLECULE
CHEMBL378024
77   82    1
SMALL
USER_CHARGES


@<TRIPOS>ATOM
      1 C1         18.8795    7.2684   -2.9914 C.3       1 <0>        -0.1872 
      2 C2         18.1378    5.9157   -3.0846 C.3       1 <0>         0.0622 
      3 C3         18.8472    4.9981   -4.1104 C.3       1 <0>        -0.1872 
      4 C4         18.1952    5.2302   -1.7020 C.3       1 <0>        -0.1872 
      5 N1         16.7161    6.1129   -3.4121 N.am      1 <0>        -0.3427 
      6 C5         16.1786    6.5635   -4.5588 C.2       1 <0>         0.4918 
      7 O1         16.8303    7.0543   -5.4835 O.2       1 <0>        -0.5530 
      8 N2         14.8421    6.3848   -4.5829 N.am      1 <0>        -0.3309 
      9 C6         14.0089    6.6958   -5.6657 C.ar      1 <0>         0.0423 
     10 C7         14.3206    6.2926   -6.9708 C.ar      1 <0>        -0.1137 
     11 C8         13.5186    6.6338   -8.0599 C.ar      1 <0>        -0.2397 
     12 C9         12.3858    7.4065   -7.7908 C.ar      1 <0>         0.1183 
     13 C10        12.0334    7.8108   -6.4791 C.ar      1 <0>         0.1752 
     14 C11        12.8492    7.4290   -5.4015 C.ar      1 <0>        -0.2351 
     15 C12        10.8376    8.5868   -6.6473 C.ar      1 <0>        -0.1775 
     16 N3         10.5101    8.6544   -7.9171 N.2       1 <0>        -0.0555 
     17 N4         11.4151    7.9412   -8.6099 N.pl3     1 <0>        -0.2249 
     18 H1         11.3372    7.8508   -9.6124 H         1 <0>         0.3253 
     19 C13        10.0495    9.2481   -5.6102 C.ar      1 <0>         0.1546 
     20 N5          9.1412   10.2494   -5.8738 N.pl3     1 <0>        -0.2662 
     21 H2          8.9681   10.6078   -6.8005 H         1 <0>         0.3193 
     22 C14         8.5919   10.6396   -4.6758 C.ar      1 <0>         0.1587 
     23 C15         7.6506   11.6020   -4.3111 C.ar      1 <0>        -0.2991 
     24 C16         7.3547   11.6922   -2.9473 C.ar      1 <0>        -0.1322 
     25 C17         7.9532   10.8713   -1.9802 C.ar      1 <0>         0.1677 
     26 C18         8.8692    9.8838   -2.3779 C.ar      1 <0>        -0.2698 
     27 C19         9.2108    9.7860   -3.7319 C.ar      1 <0>         0.2354 
     28 N6         10.1021    8.9388   -4.3362 N.2       1 <0>        -0.3606 
     29 N7          7.6039   11.0412   -0.6446 N.pl3     1 <0>        -0.4423 
     30 C20         8.5111   10.5884    0.4193 C.3       1 <0>        -0.0215 
     31 C21         8.2382   11.3012    1.7516 C.3       1 <0>        -0.1564 
     32 C22         6.7807   11.1304    2.2530 C.3       1 <0>         0.0777 
     33 C23         5.8225   11.4432    1.0773 C.3       1 <0>        -0.1564 
     34 C24         6.2173   10.7619   -0.2501 C.3       1 <0>        -0.0215 
     35 N8          6.4519   12.0714    3.4574 N.4       1 <0>        -0.4395 
     36 C25         7.5559   12.0680    4.5518 C.3       1 <0>         0.0358 
     37 C26         7.1887   13.0556    5.6689 C.3       1 <0>        -0.1608 
     38 C27         5.8253   12.7354    6.2909 C.3       1 <0>        -0.1439 
     39 C28         4.7311   12.6637    5.2154 C.3       1 <0>        -0.1608 
     40 C29         5.0916   11.6728    4.0964 C.3       1 <0>         0.0358 
     41 H3         18.8473    7.8215   -3.9296 H         1 <0>         0.0716 
     42 H4         18.4332    7.9033   -2.2300 H         1 <0>         0.0716 
     43 H5         19.9307    7.1324   -2.7293 H         1 <0>         0.0716 
     44 H6         19.8846    4.8125   -3.8285 H         1 <0>         0.0716 
     45 H7         18.3532    4.0281   -4.1866 H         1 <0>         0.0716 
     46 H8         18.8617    5.4391   -5.1087 H         1 <0>         0.0716 
     47 H9         17.7347    5.8473   -0.9292 H         1 <0>         0.0716 
     48 H10        17.6736    4.2719   -1.7061 H         1 <0>         0.0716 
     49 H11        19.2207    5.0361   -1.3837 H         1 <0>         0.0716 
     50 H12        16.0801    5.8720   -2.6686 H         1 <0>         0.2401 
     51 H13        14.3796    6.1147   -3.7280 H         1 <0>         0.2447 
     52 H14        15.2153    5.7107   -7.1462 H         1 <0>         0.1704 
     53 H15        13.7787    6.3251   -9.0612 H         1 <0>         0.1702 
     54 H16        12.6047    7.7418   -4.3973 H         1 <0>         0.1879 
     55 H17         7.1904   12.2643   -5.0280 H         1 <0>         0.2066 
     56 H18         6.6520   12.4509   -2.6323 H         1 <0>         0.1541 
     57 H19         9.3300    9.2211   -1.6606 H         1 <0>         0.1884 
     58 H20         8.4240    9.5042    0.5325 H         1 <0>         0.0861 
     59 H21         9.5415   10.8003    0.1273 H         1 <0>         0.0861 
     60 H22         8.9626   10.9335    2.4717 H         1 <0>         0.0893 
     61 H23         8.4840   12.3584    1.6321 H         1 <0>         0.0893 
     62 H24         6.6504   10.0819    2.5349 H         1 <0>         0.1253 
     63 H25         4.7936   11.1917    1.3218 H         1 <0>         0.0893 
     64 H26         5.7917   12.5196    0.8953 H         1 <0>         0.0893 
     65 H27         5.5385   11.1132   -1.0263 H         1 <0>         0.0861 
     66 H28         6.0812    9.6822   -0.1857 H         1 <0>         0.0861 
     67 H29         7.6313   11.0492    4.9170 H         1 <0>         0.1224 
     68 H30         8.4928   12.3850    4.1018 H         1 <0>         0.1224 
     69 H31         7.9515   13.0291    6.4503 H         1 <0>         0.1087 
     70 H32         7.1913   14.0721    5.2779 H         1 <0>         0.1087 
     71 H33         5.8761   11.7882    6.8311 H         1 <0>         0.1027 
     72 H34         5.5650   13.4775    7.0461 H         1 <0>         0.1027 
     73 H35         3.7891   12.3673    5.6826 H         1 <0>         0.1087 
     74 H36         4.5617   13.6526    4.7864 H         1 <0>         0.1087 
     75 H37         4.3216   11.7295    3.3293 H         1 <0>         0.1224 
     76 H38         5.1789   10.6434    4.4567 H         1 <0>         0.1224 
     77 H39         6.3725   13.0104    3.0915 H         1 <0>         0.3019 
@<TRIPOS>BOND
     1    1    2 1    
     2    1   41 1    
     3    1   42 1    
     4    1   43 1    
     5    2    3 1    
     6    2    4 1    
     7    2    5 1    
     8    3   44 1    
     9    3   45 1    
    10    3   46 1    
    11    4   47 1    
    12    4   48 1    
    13    4   49 1    
    14    5    6 am   BACKBONE|DICT|INTERRES
    15    5   50 1    
    16    6    7 2    
    17    6    8 am   BACKBONE|DICT|INTERRES
    18    8    9 1    
    19    8   51 1    
    20    9   14 ar   
    21    9   10 ar   
    22   10   11 ar   
    23   10   52 1    
    24   11   12 ar   
    25   11   53 1    
    26   12   17 ar   
    27   12   13 ar   
    28   13   14 ar   
    29   13   15 ar   
    30   14   54 1    
    31   15   16 ar   
    32   15   19 1    
    33   16   17 ar   
    34   17   18 1    
    35   19   28 ar   
    36   19   20 ar   
    37   20   21 1    
    38   20   22 ar   
    39   22   27 ar   
    40   22   23 ar   
    41   23   24 ar   
    42   23   55 1    
    43   24   25 ar   
    44   24   56 1    
    45   25   26 ar   
    46   25   29 1    
    47   26   27 ar   
    48   26   57 1    
    49   27   28 ar   
    50   29   34 1    
    51   29   30 1    
    52   30   31 1    
    53   30   58 1    
    54   30   59 1    
    55   31   32 1    
    56   31   60 1    
    57   31   61 1    
    58   32   33 1    
    59   32   35 1    
    60   32   62 1    
    61   33   34 1    
    62   33   63 1    
    63   33   64 1    
    64   34   65 1    
    65   34   66 1    
    66   35   40 1    
    67   35   36 1    
    68   35   77 1    
    69   36   37 1    
    70   36   67 1    
    71   36   68 1    
    72   37   38 1    
    73   37   69 1    
    74   37   70 1    
    75   38   39 1    
    76   38   71 1    
    77   38   72 1    
    78   39   40 1    
    79   39   73 1    
    80   39   74 1    
    81   40   75 1    
    82   40   76 1    
@<TRIPOS>SUBSTRUCTURE
     1 <0>         1 GROUP             0       ****    0 ROOT    
@<TRIPOS>MOLECULE
CHEMBL378024
77   82    1
SMALL
USER_CHARGES


@<TRIPOS>ATOM
      1 C1          2.7288    9.2217   -1.3464 C.3       1 <0>        -0.1873 
      2 C2          3.6348    8.1589   -0.6855 C.3       1 <0>         0.0625 
      3 C3          2.7630    7.0948    0.0223 C.3       1 <0>        -0.1873 
      4 C4          4.4491    7.4542   -1.7869 C.3       1 <0>        -0.1873 
      5 N1          4.5938    8.7793    0.2391 N.am      1 <0>        -0.3440 
      6 C5          4.3388    9.4773    1.3610 C.2       1 <0>         0.4909 
      7 O1          3.2085    9.6459    1.8287 O.2       1 <0>        -0.5449 
      8 N2          5.4812    9.9587    1.8882 N.am      1 <0>        -0.3333 
      9 C6          5.6566   10.6624    3.0887 C.ar      1 <0>         0.0432 
     10 C7          4.7948   10.5543    4.1938 C.ar      1 <0>        -0.1140 
     11 C8          5.0346   11.2299    5.3929 C.ar      1 <0>        -0.2398 
     12 C9          6.1903   12.0126    5.4532 C.ar      1 <0>         0.1181 
     13 C10         7.0855   12.1375    4.3586 C.ar      1 <0>         0.1752 
     14 C11         6.8036   11.4556    3.1646 C.ar      1 <0>        -0.2353 
     15 C12         8.1479   12.9675    4.8456 C.ar      1 <0>        -0.1773 
     16 N3          7.8953   13.3461    6.0802 N.2       1 <0>        -0.0554 
     17 N4          6.7464   12.7605    6.4647 N.pl3     1 <0>        -0.2250 
     18 H1          6.4412   12.8125    7.4415 H         1 <0>         0.3252 
     19 C13         9.4268   13.2828    4.2030 C.ar      1 <0>         0.1456 
     20 N5          9.9808   12.5510    3.2635 N.2       1 <0>        -0.3258 
     21 C14        11.2927   12.9530    3.2411 C.ar      1 <0>         0.2337 
     22 C15        12.3840   12.3962    2.5650 C.ar      1 <0>        -0.2343 
     23 C16        13.6570   12.9123    2.8325 C.ar      1 <0>        -0.2092 
     24 C17        13.8617   14.0312    3.6608 C.ar      1 <0>         0.2077 
     25 C18        12.7543   14.6500    4.2626 C.ar      1 <0>        -0.2905 
     26 C19        11.5047   14.0510    4.1026 C.ar      1 <0>         0.1489 
     27 N6         10.2761   14.2542    4.6806 N.pl3     1 <0>        -0.2815 
     28 N7         15.1553   14.4762    3.9519 N.pl3     1 <0>        -0.4553 
     29 C20        15.4036   15.5189    4.9714 C.3       1 <0>        -0.0179 
     30 C21        16.8379   15.5796    5.5418 C.3       1 <0>        -0.1566 
     31 C22        17.9824   15.3952    4.5136 C.3       1 <0>         0.0777 
     32 C23        17.5922   14.3279    3.4736 C.3       1 <0>        -0.1566 
     33 C24        16.1815   14.5604    2.9018 C.3       1 <0>        -0.0179 
     34 N8         19.3118   14.9929    5.2277 N.4       1 <0>        -0.4397 
     35 C25        19.5932   15.8785    6.4626 C.3       1 <0>         0.0358 
     36 C26        20.9837   15.6263    7.1152 C.3       1 <0>        -0.1607 
     37 C27        22.1149   15.7066    6.0957 C.3       1 <0>        -0.1439 
     38 C28        21.7835   14.6667    5.0549 C.3       1 <0>        -0.1607 
     39 C29        20.5167   15.0361    4.2634 C.3       1 <0>         0.0358 
     40 H2          2.1338    9.7604   -0.6103 H         1 <0>         0.0717 
     41 H3          3.3146    9.9627   -1.8866 H         1 <0>         0.0717 
     42 H4          2.0310    8.7676   -2.0537 H         1 <0>         0.0717 
     43 H5          2.1356    6.5513   -0.6839 H         1 <0>         0.0717 
     44 H6          3.3715    6.3567    0.5444 H         1 <0>         0.0717 
     45 H7          2.0991    7.5464    0.7534 H         1 <0>         0.0717 
     46 H8          5.0792    8.1570   -2.3328 H         1 <0>         0.0717 
     47 H9          5.1110    6.6920   -1.3691 H         1 <0>         0.0717 
     48 H10         3.7999    6.9617   -2.5104 H         1 <0>         0.0717 
     49 H11         5.5642    8.6237    0.0080 H         1 <0>         0.2385 
     50 H12         6.3197    9.8517    1.3399 H         1 <0>         0.2423 
     51 H13         3.9239    9.9150    4.1474 H         1 <0>         0.1703 
     52 H14         4.3672   11.1215    6.2384 H         1 <0>         0.1701 
     53 H15         7.4882   11.5165    2.3314 H         1 <0>         0.1879 
     54 H16        12.2568   11.5378    1.9214 H         1 <0>         0.2026 
     55 H17        14.4995   12.4104    2.3845 H         1 <0>         0.1530 
     56 H18        12.8682   15.5246    4.8645 H         1 <0>         0.1965 
     57 H19        15.0505   16.4930    4.6376 H         1 <0>         0.0865 
     58 H20        14.7757   15.2672    5.8283 H         1 <0>         0.0865 
     59 H21        16.9751   16.5053    6.1038 H         1 <0>         0.0893 
     60 H22        16.8909   14.8062    6.3089 H         1 <0>         0.0893 
     61 H23        18.1056   16.3461    3.9895 H         1 <0>         0.1258 
     62 H24        18.3272   14.2689    2.6756 H         1 <0>         0.0893 
     63 H25        17.6212   13.3404    3.9372 H         1 <0>         0.0893 
     64 H26        16.0133   13.8497    2.0938 H         1 <0>         0.0865 
     65 H27        16.1265   15.5582    2.4544 H         1 <0>         0.0865 
     66 H28        19.5197   16.8981    6.0650 H         1 <0>         0.1225 
     67 H29        18.8031   15.6954    7.1828 H         1 <0>         0.1225 
     68 H30        21.2329   16.3312    7.9017 H         1 <0>         0.1087 
     69 H31        20.9693   14.6610    7.6199 H         1 <0>         0.1087 
     70 H32        22.1982   16.6985    5.6541 H         1 <0>         0.1030 
     71 H33        23.0840   15.4824    6.5543 H         1 <0>         0.1030 
     72 H34        22.6372   14.3755    4.4654 H         1 <0>         0.1087 
     73 H35        21.5788   13.8158    5.6619 H         1 <0>         0.1087 
     74 H36        20.3093   14.2587    3.5440 H         1 <0>         0.1225 
     75 H37        20.5654   16.0118    3.7744 H         1 <0>         0.1225 
     76 H38        19.2365   14.0423    5.5602 H         1 <0>         0.3015 
     77 H39        10.0207   14.8909    5.4239 H         1 <0>         0.3142 
@<TRIPOS>BOND
     1    1    2 1    
     2    1   40 1    
     3    1   41 1    
     4    1   42 1    
     5    2    3 1    
     6    2    4 1    
     7    2    5 1    
     8    3   43 1    
     9    3   44 1    
    10    3   45 1    
    11    4   46 1    
    12    4   47 1    
    13    4   48 1    
    14    5    6 am   BACKBONE|DICT|INTERRES
    15    5   49 1    
    16    6    7 2    
    17    6    8 am   BACKBONE|DICT|INTERRES
    18    8    9 1    
    19    8   50 1    
    20    9   14 ar   
    21    9   10 ar   
    22   10   11 ar   
    23   10   51 1    
    24   11   12 ar   
    25   11   52 1    
    26   12   17 ar   
    27   12   13 ar   
    28   13   14 ar   
    29   13   15 ar   
    30   14   53 1    
    31   15   16 ar   
    32   15   19 1    
    33   16   17 ar   
    34   17   18 1    
    35   19   27 ar   
    36   19   20 ar   
    37   20   21 ar   
    38   21   26 ar   
    39   21   22 ar   
    40   22   23 ar   
    41   22   54 1    
    42   23   24 ar   
    43   23   55 1    
    44   24   25 ar   
    45   24   28 1    
    46   25   26 ar   
    47   25   56 1    
    48   26   27 ar   
    49   27   77 1    
    50   28   33 1    
    51   28   29 1    
    52   29   30 1    
    53   29   57 1    
    54   29   58 1    
    55   30   31 1    
    56   30   59 1    
    57   30   60 1    
    58   31   32 1    
    59   31   34 1    
    60   31   61 1    
    61   32   33 1    
    62   32   62 1    
    63   32   63 1    
    64   33   64 1    
    65   33   65 1    
    66   34   39 1    
    67   34   35 1    
    68   34   76 1    
    69   35   36 1    
    70   35   66 1    
    71   35   67 1    
    72   36   37 1    
    73   36   68 1    
    74   36   69 1    
    75   37   38 1    
    76   37   70 1    
    77   37   71 1    
    78   38   39 1    
    79   38   72 1    
    80   38   73 1    
    81   39   74 1    
    82   39   75 1    
@<TRIPOS>SUBSTRUCTURE
     1 <0>         1 GROUP             0       ****    0 ROOT    
@<TRIPOS>MOLECULE
CHEMBL454358
67   71    1
SMALL
USER_CHARGES


@<TRIPOS>ATOM
      1 C1         15.9753   12.5546    2.0881 C.3       1 <0>        -0.1286 
      2 C2         15.4763   13.5177    3.1491 C.ar      1 <0>        -0.0607 
      3 C3         16.3760   14.4569    3.6617 C.ar      1 <0>        -0.1344 
      4 C4         16.0159   15.2529    4.7431 C.ar      1 <0>        -0.1173 
      5 C5         14.7827   15.0560    5.3547 C.ar      1 <0>        -0.1344 
      6 C6         13.8596   14.1504    4.8428 C.ar      1 <0>        -0.0607 
      7 C7         14.1713   13.4322    3.6719 C.ar      1 <0>        -0.0893 
      8 C8         13.1336   12.6295    2.9886 C.2       1 <0>        -0.1242 
      9 C9         11.8781   13.0802    2.7795 C.2       1 <0>        -0.1172 
     10 N1         10.8503   12.3800    2.1407 N.pl3     1 <0>         0.0926 
     11 C10        10.9822   11.2386    1.3785 C.ar      1 <0>        -0.0680 
     12 N2          9.8845   10.8501    0.7896 N.2       1 <0>        -0.3114 
     13 C11         8.9588   11.7765    1.1785 C.ar      1 <0>        -0.0905 
     14 C12         9.5050   12.7069    2.0841 C.ar      1 <0>         0.3184 
     15 N3          8.8254   13.7083    2.6676 N.ar      1 <0>        -0.4068 
     16 C13         7.5158   13.7911    2.2712 C.ar      1 <0>         0.5475 
     17 N4          6.9143   12.9940    1.3381 N.ar      1 <0>        -0.5476 
     18 C14         7.6269   11.9698    0.8045 C.ar      1 <0>         0.4455 
     19 N5          7.0682   11.1028   -0.1421 N.pl3     1 <0>        -0.6023 
     20 C15         5.9308   11.1658   -0.9558 C.ar      1 <0>         0.2483 
     21 C16         5.2529   12.3585   -1.2266 C.ar      1 <0>        -0.1776 
     22 C17         4.1690   12.3587   -2.1031 C.ar      1 <0>        -0.0320 
     23 C18         3.7693   11.1696   -2.7121 C.ar      1 <0>        -0.1818 
     24 C19         4.4360    9.9750   -2.4335 C.ar      1 <0>        -0.0320 
     25 C20         5.5166    9.9763   -1.5585 C.ar      1 <0>        -0.1776 
     26 P1          2.3737   11.1799   -3.8669 P.3       1 <0>         0.6785 
     27 O1          1.7464   12.5196   -4.0325 O.2       1 <0>        -0.6297 
     28 C21         3.0313   10.4692   -5.4240 C.3       1 <0>        -0.3873 
     29 C22         1.2360    9.8948   -3.2267 C.3       1 <0>        -0.3873 
     30 N6          6.7528   14.8398    2.7997 N.pl3     1 <0>        -0.4172 
     31 C23         6.9711   15.2905    4.1890 C.3       1 <0>        -0.0391 
     32 C24         6.3228   16.6499    4.5212 C.3       1 <0>         0.1277 
     33 O2          4.9438   16.6533    4.1901 O.3       1 <0>        -0.4479 
     34 C25         4.7161   16.3542    2.8231 C.3       1 <0>         0.1277 
     35 C26         5.3199   14.9833    2.4590 C.3       1 <0>        -0.0391 
     36 C27        12.6041   13.8293    5.6431 C.3       1 <0>        -0.1286 
     37 H1         15.5708   12.8234    1.1175 H         1 <0>         0.0713 
     38 H2         17.0666   12.5287    2.0673 H         1 <0>         0.0713 
     39 H3         15.6448   11.5433    2.3264 H         1 <0>         0.0713 
     40 H4         17.3696   14.5486    3.2458 H         1 <0>         0.1329 
     41 H5         16.7209   15.9597    5.1591 H         1 <0>         0.1324 
     42 H6         14.5724   15.5995    6.2605 H         1 <0>         0.1329 
     43 H7         13.4176   11.6397    2.6723 H         1 <0>         0.1332 
     44 H8         11.5655   14.0685    3.0860 H         1 <0>         0.1809 
     45 H9         11.9441   10.7594    1.2640 H         1 <0>         0.2024 
     46 H10         7.6585   10.3030   -0.3171 H         1 <0>         0.3349 
     47 H11         5.5725   13.2911   -0.7897 H         1 <0>         0.1501 
     48 H12         3.6548   13.2846   -2.3184 H         1 <0>         0.1402 
     49 H13         4.1329    9.0470   -2.8960 H         1 <0>         0.1402 
     50 H14         6.0340    9.0483   -1.3563 H         1 <0>         0.1501 
     51 H15         3.5148    9.5090   -5.2525 H         1 <0>         0.1172 
     52 H16         2.2223   10.3173   -6.1400 H         1 <0>         0.1172 
     53 H17         3.7578   11.1478   -5.8714 H         1 <0>         0.1172 
     54 H18         0.7786   10.2215   -2.2950 H         1 <0>         0.1172 
     55 H19         0.4470    9.6988   -3.9497 H         1 <0>         0.1172 
     56 H20         1.7594    8.9580   -3.0390 H         1 <0>         0.1172 
     57 H21         6.6098   14.5237    4.8772 H         1 <0>         0.0758 
     58 H22         8.0373   15.3962    4.3796 H         1 <0>         0.0758 
     59 H23         6.4300   16.8851    5.5815 H         1 <0>         0.0551 
     60 H24         6.8326   17.4401    3.9645 H         1 <0>         0.0551 
     61 H25         3.6432   16.3602    2.6295 H         1 <0>         0.0551 
     62 H26         5.1627   17.1263    2.1928 H         1 <0>         0.0551 
     63 H27         5.1943   14.8609    1.3831 H         1 <0>         0.0758 
     64 H28         4.7552   14.1774    2.9269 H         1 <0>         0.0758 
     65 H29        11.7335   14.3649    5.2654 H         1 <0>         0.0713 
     66 H30        12.4180   12.7599    5.5792 H         1 <0>         0.0713 
     67 H31        12.7349   13.9845    6.7098 H         1 <0>         0.0713 
@<TRIPOS>BOND
     1    1    2 1    
     2    1   37 1    
     3    1   38 1    
     4    1   39 1    
     5    2    7 ar   
     6    2    3 ar   
     7    3    4 ar   
     8    3   40 1    
     9    4    5 ar   
    10    4   41 1    
    11    5    6 ar   
    12    5   42 1    
    13    6    7 ar   
    14    6   36 1    
    15    7    8 1    
    16    8    9 2    
    17    8   43 1    
    18    9   10 1    
    19    9   44 1    
    20   10   14 ar   
    21   10   11 ar   
    22   11   12 ar   
    23   11   45 1    
    24   12   13 ar   
    25   13   18 ar   
    26   13   14 ar   
    27   14   15 ar   
    28   15   16 ar   
    29   16   17 ar   
    30   16   30 1    
    31   17   18 ar   
    32   18   19 1    
    33   19   20 1    
    34   19   46 1    
    35   20   25 ar   
    36   20   21 ar   
    37   21   22 ar   
    38   21   47 1    
    39   22   23 ar   
    40   22   48 1    
    41   23   24 ar   
    42   23   26 1    
    43   24   25 ar   
    44   24   49 1    
    45   25   50 1    
    46   26   27 2    
    47   26   28 1    
    48   26   29 1    
    49   28   51 1    
    50   28   52 1    
    51   28   53 1    
    52   29   54 1    
    53   29   55 1    
    54   29   56 1    
    55   30   35 1    
    56   30   31 1    
    57   31   32 1    
    58   31   57 1    
    59   31   58 1    
    60   32   33 1    
    61   32   59 1    
    62   32   60 1    
    63   33   34 1    
    64   34   35 1    
    65   34   61 1    
    66   34   62 1    
    67   35   63 1    
    68   35   64 1    
    69   36   65 1    
    70   36   66 1    
    71   36   67 1    
@<TRIPOS>SUBSTRUCTURE
     1 <0>         1 GROUP             0       ****    0 ROOT    
@<TRIPOS>MOLECULE
CHEMBL209704
73   79    1
SMALL
USER_CHARGES


@<TRIPOS>ATOM
      1 C1         20.2872   16.3378    4.7794 C.ar      1 <0>        -0.1132 
      2 C2         19.8737   15.1374    5.3519 C.ar      1 <0>        -0.1316 
      3 C3         18.7314   14.5049    4.8661 C.ar      1 <0>        -0.1026 
      4 C4         17.9917   15.0631    3.8265 C.ar      1 <0>        -0.1086 
      5 C5         18.4317   16.2525    3.2484 C.ar      1 <0>        -0.1026 
      6 C6         19.5732   16.8970    3.7219 C.ar      1 <0>        -0.1316 
      7 C7         16.7369   14.3528    3.3182 C.3       1 <0>         0.2078 
      8 O1         15.6372   14.6031    4.1839 O.3       1 <0>        -0.3682 
      9 C8         14.4165   14.0215    3.8922 C.ar      1 <0>         0.2014 
     10 C9         14.1997   13.0986    2.8564 C.ar      1 <0>        -0.1891 
     11 C10        12.9193   12.6484    2.5274 C.ar      1 <0>        -0.2139 
     12 C11        11.8257   13.1199    3.2656 C.ar      1 <0>         0.1384 
     13 C12        12.0738   13.9892    4.3545 C.ar      1 <0>         0.1533 
     14 C13        13.3560   14.4262    4.6970 C.ar      1 <0>        -0.3355 
     15 N1         10.8353   14.2506    4.8949 N.pl3     1 <0>        -0.2298 
     16 N2          9.8503   13.6457    4.2194 N.2       1 <0>        -0.0702 
     17 H1         10.6228   14.8093    5.7063 H         1 <0>         0.3250 
     18 C14        10.3961   12.9644    3.2385 C.ar      1 <0>        -0.1670 
     19 C15         9.5666   12.1998    2.3067 C.ar      1 <0>         0.1545 
     20 N3          8.1934   12.1819    2.4005 N.pl3     1 <0>        -0.2721 
     21 H2          7.6842   12.6599    3.1275 H         1 <0>         0.3179 
     22 C16         7.7137   11.4535    1.3432 C.ar      1 <0>         0.1584 
     23 C17         6.4304   11.1359    0.9020 C.ar      1 <0>        -0.3006 
     24 C18         6.3485   10.4106   -0.2890 C.ar      1 <0>        -0.1319 
     25 C19         7.4796    9.9811   -1.0008 C.ar      1 <0>         0.1681 
     26 C20         8.7578   10.2549   -0.4944 C.ar      1 <0>        -0.2688 
     27 C21         8.8810   11.0303    0.6667 C.ar      1 <0>         0.2348 
     28 N4         10.0121   11.4916    1.2948 N.2       1 <0>        -0.3545 
     29 N5          7.3179    9.3360   -2.2250 N.pl3     1 <0>        -0.4428 
     30 C22         8.3685    9.2475   -3.2511 C.3       1 <0>        -0.0214 
     31 C23         9.1429    7.9156   -3.1577 C.3       1 <0>        -0.1563 
     32 C24         8.1992    6.6855   -3.2525 C.3       1 <0>         0.0777 
     33 C25         7.0137    6.8747   -2.2700 C.3       1 <0>        -0.1563 
     34 C26         6.3419    8.2548   -2.4302 C.3       1 <0>        -0.0214 
     35 N6          8.9451    5.3471   -2.9531 N.4       1 <0>        -0.4395 
     36 C27        10.2972    5.2493   -3.7134 C.3       1 <0>         0.0358 
     37 C28        10.9790    3.9110   -3.3962 C.3       1 <0>        -0.1607 
     38 C29        10.0919    2.7046   -3.7231 C.3       1 <0>        -0.1439 
     39 C30         8.7528    2.8155   -2.9862 C.3       1 <0>        -0.1607 
     40 C31         8.0310    4.1374   -3.3032 C.3       1 <0>         0.0358 
     41 H3         21.1800   16.8252    5.1437 H         1 <0>         0.1347 
     42 H4         20.4486   14.6902    6.1509 H         1 <0>         0.1354 
     43 H5         18.4337   13.5512    5.2644 H         1 <0>         0.1329 
     44 H6         17.8979   16.6538    2.4075 H         1 <0>         0.1329 
     45 H7         19.9090   17.8151    3.2618 H         1 <0>         0.1354 
     46 H8         16.4323   14.7014    2.3340 H         1 <0>         0.0425 
     47 H9         16.9497   13.2843    3.2448 H         1 <0>         0.0425 
     48 H10        15.0174   12.7441    2.2485 H         1 <0>         0.1707 
     49 H11        12.7746   11.9567    1.7080 H         1 <0>         0.1841 
     50 H12        13.5417   15.0841    5.5281 H         1 <0>         0.1673 
     51 H13         5.5454   11.4642    1.4264 H         1 <0>         0.2054 
     52 H14         5.3623   10.2080   -0.6797 H         1 <0>         0.1539 
     53 H15         9.6355    9.8773   -0.9931 H         1 <0>         0.1892 
     54 H16         7.8891    9.3231   -4.2287 H         1 <0>         0.0863 
     55 H17         9.0390   10.1082   -3.1984 H         1 <0>         0.0863 
     56 H18         9.9196    7.8890   -3.9204 H         1 <0>         0.0893 
     57 H19         9.6913    7.8951   -2.2138 H         1 <0>         0.0893 
     58 H20         7.7939    6.6648   -4.2678 H         1 <0>         0.1255 
     59 H21         6.2650    6.0911   -2.3697 H         1 <0>         0.0893 
     60 H22         7.3690    6.7768   -1.2423 H         1 <0>         0.0893 
     61 H23         5.4823    8.3424   -1.7668 H         1 <0>         0.0863 
     62 H24         5.9438    8.3526   -3.4420 H         1 <0>         0.0863 
     63 H25        10.0967    5.3862   -4.7794 H         1 <0>         0.1224 
     64 H26        10.9454    6.0445   -3.3444 H         1 <0>         0.1224 
     65 H27        11.9265    3.8368   -3.9314 H         1 <0>         0.1086 
     66 H28        11.2351    3.8812   -2.3359 H         1 <0>         0.1086 
     67 H29         9.9267    2.6404   -4.8007 H         1 <0>         0.1027 
     68 H30        10.6019    1.7834   -3.4310 H         1 <0>         0.1027 
     69 H31         8.1118    1.9747   -3.2583 H         1 <0>         0.1086 
     70 H32         8.9166    2.7323   -1.9089 H         1 <0>         0.1086 
     71 H33         7.1413    4.1919   -2.6777 H         1 <0>         0.1224 
     72 H34         7.7526    4.2271   -4.3553 H         1 <0>         0.1224 
     73 H35         9.1470    5.3016   -1.9626 H         1 <0>         0.3017 
@<TRIPOS>BOND
     1    1    6 ar   
     2    1    2 ar   
     3    1   41 1    
     4    2    3 ar   
     5    2   42 1    
     6    3    4 ar   
     7    3   43 1    
     8    4    5 ar   
     9    4    7 1    
    10    5    6 ar   
    11    5   44 1    
    12    6   45 1    
    13    7    8 1    
    14    7   46 1    
    15    7   47 1    
    16    8    9 1    
    17    9   14 ar   
    18    9   10 ar   
    19   10   48 1    
    20   10   11 ar   
    21   11   49 1    
    22   11   12 ar   
    23   12   13 ar   
    24   12   18 ar   
    25   13   15 ar   
    26   13   14 ar   
    27   14   50 1    
    28   15   16 ar   
    29   15   17 1    
    30   16   18 ar   
    31   18   19 1    
    32   19   28 ar   
    33   19   20 ar   
    34   20   21 1    
    35   20   22 ar   
    36   22   27 ar   
    37   22   23 ar   
    38   23   24 ar   
    39   23   51 1    
    40   24   25 ar   
    41   24   52 1    
    42   25   26 ar   
    43   25   29 1    
    44   26   27 ar   
    45   26   53 1    
    46   27   28 ar   
    47   29   34 1    
    48   29   30 1    
    49   30   31 1    
    50   30   54 1    
    51   30   55 1    
    52   31   32 1    
    53   31   56 1    
    54   31   57 1    
    55   32   33 1    
    56   32   35 1    
    57   32   58 1    
    58   33   34 1    
    59   33   59 1    
    60   33   60 1    
    61   34   61 1    
    62   34   62 1    
    63   35   40 1    
    64   35   36 1    
    65   35   73 1    
    66   36   37 1    
    67   36   63 1    
    68   36   64 1    
    69   37   38 1    
    70   37   65 1    
    71   37   66 1    
    72   38   39 1    
    73   38   67 1    
    74   38   68 1    
    75   39   40 1    
    76   39   69 1    
    77   39   70 1    
    78   40   71 1    
    79   40   72 1    
@<TRIPOS>SUBSTRUCTURE
     1 <0>         1 GROUP             0       ****    0 ROOT    
@<TRIPOS>MOLECULE
CHEMBL55592
44   47    1
SMALL
USER_CHARGES


@<TRIPOS>ATOM
      1 C1          5.9911   11.7074    5.1077 C.ar      1 <0>        -0.0938 
      2 C2          7.1950   12.0575    4.4960 C.ar      1 <0>        -0.1588 
      3 C3          7.8210   13.2751    4.7993 C.ar      1 <0>         0.2306 
      4 C4          7.2171   14.1306    5.7177 C.ar      1 <0>        -0.1559 
      5 C5          6.0102   13.7858    6.3416 C.ar      1 <0>         0.0510 
      6 C6          5.4029   12.5667    6.0342 C.ar      1 <0>        -0.1443 
      7 N1          5.4426   14.5505    7.3707 N.am      1 <0>        -0.3802 
      8 C7          5.6016   15.8682    7.6099 C.2       1 <0>         0.4667 
      9 O1          6.0338   16.6603    6.7701 O.2       1 <0>        -0.4957 
     10 C8          5.2418   16.3451    9.0004 C.ar      1 <0>        -0.0371 
     11 C9          4.9680   15.4509   10.0551 C.ar      1 <0>        -0.1504 
     12 C10         4.6938   15.9568   11.3260 C.ar      1 <0>        -0.0215 
     13 N2          4.6664   17.2843   11.6006 N.ar      1 <0>        -0.2363 
     14 C11         4.9276   18.1441   10.5851 C.ar      1 <0>        -0.0215 
     15 C12         5.2167   17.7215    9.2862 C.ar      1 <0>        -0.1504 
     16 N3          9.0789   13.6595    4.3067 N.pl3     1 <0>        -0.6076 
     17 C13         9.9462   13.0780    3.3775 C.ar      1 <0>         0.3617 
     18 N4          9.4686   12.2127    2.4478 N.ar      1 <0>        -0.3194 
     19 C14        10.3837   11.6045    1.6572 C.ar      1 <0>         0.0703 
     20 C15        11.7491   11.8532    1.7798 C.ar      1 <0>        -0.2665 
     21 C16        12.1666   12.7801    2.7472 C.ar      1 <0>         0.1598 
     22 N5         11.2507   13.4169    3.5322 N.ar      1 <0>        -0.2995 
     23 C17        13.6083   13.1358    2.9636 C.ar      1 <0>        -0.0928 
     24 C18        13.9940   14.2842    3.6780 C.ar      1 <0>        -0.0604 
     25 C19        15.3413   14.6134    3.8289 C.ar      1 <0>        -0.1818 
     26 C20        16.2969   13.7723    3.2624 C.ar      1 <0>        -0.0081 
     27 N6         15.9697   12.6478    2.5836 N.ar      1 <0>        -0.2503 
     28 C21        14.6518   12.3539    2.4419 C.ar      1 <0>         0.0110 
     29 H1          5.5304   10.7555    4.8867 H         1 <0>         0.1381 
     30 H2          7.6400   11.3431    3.8210 H         1 <0>         0.1480 
     31 H3          7.7169   15.0437    5.9906 H         1 <0>         0.1520 
     32 H4          4.4927   12.2634    6.5328 H         1 <0>         0.1379 
     33 H5          5.0031   13.9945    8.0909 H         1 <0>         0.3018 
     34 H6          4.9828   14.3775    9.9222 H         1 <0>         0.1513 
     35 H7          4.4936   15.2854   12.1484 H         1 <0>         0.1634 
     36 H8          4.9010   19.1971   10.8287 H         1 <0>         0.1634 
     37 H9          5.4220   18.4576    8.5215 H         1 <0>         0.1513 
     38 H10         9.5518   14.3265    4.8942 H         1 <0>         0.3309 
     39 H11        10.0096   10.8938    0.9333 H         1 <0>         0.1676 
     40 H12        12.4426   11.3296    1.1423 H         1 <0>         0.1621 
     41 H13        13.2513   14.9394    4.1114 H         1 <0>         0.1410 
     42 H14        15.6366   15.4942    4.3793 H         1 <0>         0.1474 
     43 H15        17.3518   13.9867    3.3588 H         1 <0>         0.1611 
     44 H16        14.4444   11.4545    1.8831 H         1 <0>         0.1638 
@<TRIPOS>BOND
     1    1    6 ar   
     2    1    2 ar   
     3    1   29 1    
     4    2    3 ar   
     5    2   30 1    
     6    3    4 ar   
     7    3   16 1    
     8    4    5 ar   
     9    4   31 1    
    10    5    6 ar   
    11    5    7 1    
    12    6   32 1    
    13    7    8 am   BACKBONE|DICT|INTERRES
    14    7   33 1    
    15    8    9 2    
    16    8   10 1    
    17   10   15 ar   
    18   10   11 ar   
    19   11   12 ar   
    20   11   34 1    
    21   12   13 ar   
    22   12   35 1    
    23   13   14 ar   
    24   14   15 ar   
    25   14   36 1    
    26   15   37 1    
    27   16   17 1    
    28   16   38 1    
    29   17   22 ar   
    30   17   18 ar   
    31   18   19 ar   
    32   19   20 ar   
    33   19   39 1    
    34   20   21 ar   
    35   20   40 1    
    36   21   22 ar   
    37   21   23 1    
    38   23   28 ar   
    39   23   24 ar   
    40   24   25 ar   
    41   24   41 1    
    42   25   26 ar   
    43   25   42 1    
    44   26   27 ar   
    45   26   43 1    
    46   27   28 ar   
    47   28   44 1    
@<TRIPOS>SUBSTRUCTURE
     1 <0>         1 GROUP             0       ****    0 ROOT    
@<TRIPOS>MOLECULE
CHEMBL1169881
67   71    1
SMALL
USER_CHARGES


@<TRIPOS>ATOM
      1 C1         10.2109   11.3933    1.0412 C.3       1 <0>        -0.1322 
      2 C2          9.5602   12.0700    2.2474 C.ar      1 <0>        -0.0316 
      3 C3          8.1960   11.8650    2.4757 C.ar      1 <0>        -0.1349 
      4 C4          7.5607   12.4336    3.5808 C.ar      1 <0>        -0.0900 
      5 C5          8.2760   13.2417    4.4784 C.ar      1 <0>        -0.1815 
      6 C6          9.6394   13.4552    4.2389 C.ar      1 <0>        -0.0739 
      7 C7         10.2858   12.8732    3.1467 C.ar      1 <0>         0.0898 
      8 C8         11.7245   13.0674    3.0360 C.1       1 <0>        -0.1762 
      9 C9         12.9409   13.1478    3.0059 C.1       1 <0>        -0.0850 
     10 C10        14.3913   13.1359    2.9679 C.ar      1 <0>        -0.3668 
     11 C11        15.2293   12.2637    2.2825 C.ar      1 <0>         0.1355 
     12 N1         16.5113   12.4904    2.4647 N.2       1 <0>        -0.4780 
     13 C12        16.5454   13.5852    3.2641 C.ar      1 <0>         0.3807 
     14 N2         15.2445   13.9944    3.6281 N.pl3     1 <0>         0.3998 
     15 C13        15.0295   15.0476    4.4853 C.ar      1 <0>        -0.2545 
     16 C14        16.1234   15.7205    5.0277 C.ar      1 <0>        -0.2120 
     17 C15        17.4176   15.3624    4.6526 C.ar      1 <0>        -0.0888 
     18 C16        17.6465   14.3027    3.7690 C.ar      1 <0>        -0.3538 
     19 C17         7.6311   13.8778    5.6889 C.2       1 <0>         0.5565 
     20 O1          8.3292   14.2567    6.6346 O.2       1 <0>        -0.4989 
     21 N3          6.3002   14.0863    5.6184 N.am      1 <0>        -0.3996 
     22 C18         5.6132   14.9411    6.4822 C.ar      1 <0>         0.0203 
     23 C19         5.7071   16.3201    6.2948 C.ar      1 <0>        -0.0573 
     24 C20         5.0605   17.1851    7.1705 C.ar      1 <0>        -0.2100 
     25 C21         4.3087   16.6826    8.2422 C.ar      1 <0>         0.1844 
     26 C22         4.1724   15.2932    8.4055 C.ar      1 <0>        -0.1105 
     27 C23         4.8349   14.4277    7.5212 C.ar      1 <0>        -0.0392 
     28 C24         3.3298   14.7347    9.5552 C.3       1 <0>         0.4747 
     29 F1          3.2253   13.4071    9.5181 F         1 <0>        -0.1697 
     30 F2          3.8746   15.0835   10.7229 F         1 <0>        -0.1697 
     31 F3          2.0949   15.2360    9.5000 F         1 <0>        -0.1697 
     32 O2          3.7008   17.5309    9.1468 O.3       1 <0>        -0.3620 
     33 C25         4.4637   18.6152    9.6832 C.3       1 <0>         0.2654 
     34 C26         5.8423   18.1851   10.2366 C.3       1 <0>        -0.2237 
     35 C27         6.6206   19.3889   10.7885 C.3       1 <0>         0.0427 
     36 N4          5.7678   20.0414   11.9015 N.4       1 <0>        -0.4518 
     37 C28         4.3835   20.5002   11.3811 C.3       1 <0>         0.0427 
     38 C29         3.6449   19.2756   10.8049 C.3       1 <0>        -0.2237 
     39 C30         6.5328   21.2347   12.5141 C.3       1 <0>        -0.0095 
     40 H1         10.8539   10.5717    1.3648 H         1 <0>         0.0804 
     41 H2          9.4695   11.0028    0.3443 H         1 <0>         0.0804 
     42 H3         10.8272   12.0990    0.4785 H         1 <0>         0.0804 
     43 H4          7.6243   11.2350    1.8101 H         1 <0>         0.1434 
     44 H5          6.5130   12.2185    3.7308 H         1 <0>         0.1357 
     45 H6         10.2143   14.0590    4.9295 H         1 <0>         0.1460 
     46 H7         14.8802   11.4548    1.6550 H         1 <0>         0.1644 
     47 H8         14.0031   15.2829    4.7235 H         1 <0>         0.2207 
     48 H9         15.9673   16.5358    5.7205 H         1 <0>         0.1857 
     49 H10        18.2579   15.9057    5.0623 H         1 <0>         0.1620 
     50 H11        18.6540   14.0210    3.4973 H         1 <0>         0.2218 
     51 H12         5.7858   13.6984    4.8434 H         1 <0>         0.3146 
     52 H13         6.2918   16.7225    5.4814 H         1 <0>         0.1549 
     53 H14         5.1563   18.2487    7.0156 H         1 <0>         0.1303 
     54 H15         4.7800   13.3559    7.6627 H         1 <0>         0.1729 
     55 H16         4.5957   19.3578    8.8934 H         1 <0>         0.0588 
     56 H17         5.7145   17.4510   11.0342 H         1 <0>         0.1265 
     57 H18         6.4364   17.7247    9.4520 H         1 <0>         0.1265 
     58 H19         7.5547   19.0569   11.2475 H         1 <0>         0.1273 
     59 H20         6.8264   20.1444   10.0277 H         1 <0>         0.1273 
     60 H21         3.8393   20.9060   12.2365 H         1 <0>         0.1273 
     61 H22         4.5447   21.2846   10.6386 H         1 <0>         0.1273 
     62 H23         2.6776   19.5959   10.4165 H         1 <0>         0.1265 
     63 H24         3.4640   18.5600   11.6084 H         1 <0>         0.1265 
     64 H25         6.6927   21.9816   11.7343 H         1 <0>         0.1261 
     65 H26         5.9257   21.6348   13.3281 H         1 <0>         0.1261 
     66 H27         7.4814   20.8534   12.8971 H         1 <0>         0.1261 
     67 H28         5.6176   19.3492   12.6245 H         1 <0>         0.3154 
@<TRIPOS>BOND
     1    1    2 1    
     2    1   40 1    
     3    1   41 1    
     4    1   42 1    
     5    2    7 ar   
     6    2    3 ar   
     7    3    4 ar   
     8    3   43 1    
     9    4    5 ar   
    10    4   44 1    
    11    5    6 ar   
    12    5   19 1    
    13    6    7 ar   
    14    6   45 1    
    15    7    8 1    
    16    8    9 3    
    17    9   10 1    
    18   10   14 ar   
    19   10   11 ar   
    20   11   12 ar   
    21   11   46 1    
    22   12   13 ar   
    23   13   18 ar   
    24   13   14 ar   
    25   14   15 ar   
    26   15   16 ar   
    27   15   47 1    
    28   16   17 ar   
    29   16   48 1    
    30   17   18 ar   
    31   17   49 1    
    32   18   50 1    
    33   19   20 2    
    34   19   21 am   BACKBONE|DICT|INTERRES
    35   21   22 1    
    36   21   51 1    
    37   22   27 ar   
    38   22   23 ar   
    39   23   24 ar   
    40   23   52 1    
    41   24   25 ar   
    42   24   53 1    
    43   25   26 ar   
    44   25   32 1    
    45   26   27 ar   
    46   26   28 1    
    47   27   54 1    
    48   28   29 1    
    49   28   30 1    
    50   28   31 1    
    51   32   33 1    
    52   33   38 1    
    53   33   34 1    
    54   33   55 1    
    55   34   35 1    
    56   34   56 1    
    57   34   57 1    
    58   35   36 1    
    59   35   58 1    
    60   35   59 1    
    61   36   37 1    
    62   36   39 1    
    63   36   67 1    
    64   37   38 1    
    65   37   60 1    
    66   37   61 1    
    67   38   62 1    
    68   38   63 1    
    69   39   64 1    
    70   39   65 1    
    71   39   66 1    
@<TRIPOS>SUBSTRUCTURE
     1 <0>         1 GROUP             0       ****    0 ROOT    
@<TRIPOS>MOLECULE
CHEMBL24828
55   58    1
SMALL
USER_CHARGES


@<TRIPOS>ATOM
      1 C1         18.8603   15.2507    4.3969 C.3       1 <0>        -0.0106 
      2 N1         17.3368   15.5088    4.3445 N.4       1 <0>        -0.4467 
      3 C2         16.7369   15.5310    5.7677 C.3       1 <0>         0.0389 
      4 C3         15.2003   15.6075    5.6834 C.3       1 <0>        -0.1590 
      5 C4         14.5317   14.5909    4.7179 C.3       1 <0>        -0.1378 
      6 C5         15.1353   14.8243    3.3366 C.3       1 <0>        -0.1590 
      7 C6         16.6410   14.4866    3.4182 C.3       1 <0>         0.0389 
      8 C7         12.9903   14.6649    4.7769 C.3       1 <0>         0.2070 
      9 O1         12.3517   13.8898    3.7618 O.3       1 <0>        -0.3750 
     10 C8         10.9992   13.5935    3.8824 C.ar      1 <0>         0.1744 
     11 C9         10.1888   14.1104    4.9027 C.ar      1 <0>        -0.2395 
     12 C10         8.8714   13.6603    5.0961 C.ar      1 <0>         0.1944 
     13 C11         8.3213   12.6990    4.1998 C.ar      1 <0>        -0.0201 
     14 C12         9.1212   12.2552    3.1093 C.ar      1 <0>        -0.2084 
     15 C13        10.4568   12.6748    2.9750 C.ar      1 <0>         0.1427 
     16 O2         11.3209   12.1740    2.0208 O.3       1 <0>        -0.3705 
     17 C14        10.9519   11.0145    1.2869 C.3       1 <0>         0.1336 
     18 C15         7.0116   12.2247    4.5314 C.ar      1 <0>         0.4015 
     19 N2          6.3286   12.7012    5.6001 N.ar      1 <0>        -0.4597 
     20 C16         6.9488   13.6173    6.3727 C.ar      1 <0>         0.2242 
     21 N3          8.1864   14.1268    6.1769 N.ar      1 <0>        -0.3806 
     22 N4          6.4310   11.1849    3.7824 N.pl3     1 <0>        -0.6083 
     23 C17         5.3434   10.3088    3.9762 C.ar      1 <0>         0.1779 
     24 C18         4.4541   10.3853    5.0613 C.ar      1 <0>        -0.1458 
     25 C19         3.4309    9.4515    5.2086 C.ar      1 <0>        -0.0910 
     26 C20         3.2885    8.4167    4.2871 C.ar      1 <0>         0.0357 
     27 C21         4.1615    8.3275    3.2055 C.ar      1 <0>        -0.1133 
     28 C22         5.1811    9.2669    3.0487 C.ar      1 <0>         0.1549 
     29 F1          6.0255    9.1435    1.9961 F         1 <0>        -0.1536 
     30 Br1         1.9251    7.1098    4.5234 Br        1 <0>        -0.1269 
     31 H1         19.2492   15.3243    3.3781 H         1 <0>         0.1251 
     32 H2         19.3051   16.0199    5.0312 H         1 <0>         0.1251 
     33 H3         19.0269   14.2540    4.8103 H         1 <0>         0.1251 
     34 H4         17.0946   14.6545    6.2983 H         1 <0>         0.1257 
     35 H5         17.1337   16.4215    6.2594 H         1 <0>         0.1257 
     36 H6         14.8217   15.4553    6.6944 H         1 <0>         0.1154 
     37 H7         14.9013   16.6177    5.4019 H         1 <0>         0.1154 
     38 H8         14.7932   13.5711    4.9693 H         1 <0>         0.1057 
     39 H9         14.6610   14.1602    2.6109 H         1 <0>         0.1154 
     40 H10        14.8965   15.8377    2.9985 H         1 <0>         0.1154 
     41 H11        17.1245   14.5943    2.4658 H         1 <0>         0.1257 
     42 H12        16.8442   13.4831    3.7977 H         1 <0>         0.1257 
     43 H13        12.7073   14.2546    5.7498 H         1 <0>         0.0508 
     44 H14        12.6478   15.6984    4.7058 H         1 <0>         0.0508 
     45 H15        10.5578   14.8177    5.6177 H         1 <0>         0.1559 
     46 H16         8.7045   11.5314    2.4258 H         1 <0>         0.1546 
     47 H17        11.8524   10.5756    0.8634 H         1 <0>         0.0470 
     48 H18        10.5096   10.2505    1.9247 H         1 <0>         0.0470 
     49 H19        10.2599   11.2551    0.4795 H         1 <0>         0.0470 
     50 H20         6.4178   13.9358    7.2602 H         1 <0>         0.2007 
     51 H21         7.0202   10.8777    3.0229 H         1 <0>         0.3180 
     52 H22         4.5318   11.1414    5.8243 H         1 <0>         0.1360 
     53 H23         2.7695    9.5053    6.0630 H         1 <0>         0.1507 
     54 H24         4.0586    7.5213    2.4954 H         1 <0>         0.1669 
     55 H25        17.1739   16.4178    3.9313 H         1 <0>         0.3109 
@<TRIPOS>BOND
     1    1    2 1    
     2    1   31 1    
     3    1   32 1    
     4    1   33 1    
     5    2    7 1    
     6    2    3 1    
     7    2   55 1    
     8    3    4 1    
     9    3   34 1    
    10    3   35 1    
    11    4    5 1    
    12    4   36 1    
    13    4   37 1    
    14    5    6 1    
    15    5    8 1    
    16    5   38 1    
    17    6    7 1    
    18    6   39 1    
    19    6   40 1    
    20    7   41 1    
    21    7   42 1    
    22    8    9 1    
    23    8   43 1    
    24    8   44 1    
    25    9   10 1    
    26   10   15 ar   
    27   10   11 ar   
    28   11   12 ar   
    29   11   45 1    
    30   12   21 ar   
    31   12   13 ar   
    32   13   14 ar   
    33   13   18 ar   
    34   14   15 ar   
    35   14   46 1    
    36   15   16 1    
    37   16   17 1    
    38   17   47 1    
    39   17   48 1    
    40   17   49 1    
    41   18   19 ar   
    42   18   22 1    
    43   19   20 ar   
    44   20   21 ar   
    45   20   50 1    
    46   22   23 1    
    47   22   51 1    
    48   23   28 ar   
    49   23   24 ar   
    50   24   25 ar   
    51   24   52 1    
    52   25   26 ar   
    53   25   53 1    
    54   26   27 ar   
    55   26   30 1    
    56   27   28 ar   
    57   27   54 1    
    58   28   29 1    
@<TRIPOS>SUBSTRUCTURE
     1 <0>         1 GROUP             0       ****    0 ROOT    
@<TRIPOS>MOLECULE
CHEMBL364955
62   66    1
SMALL
USER_CHARGES


@<TRIPOS>ATOM
      1 C1         16.4214   14.2238    3.5700 C.3       1 <0>        -0.0082 
      2 N1         15.0376   13.5435    3.6641 N.4       1 <0>        -0.4465 
      3 C2         14.6853   12.8340    2.3390 C.3       1 <0>         0.0639 
      4 C3         13.2526   12.2538    2.4091 C.3       1 <0>         0.0454 
      5 N2         12.2313   13.2143    2.8642 N.3       1 <0>        -0.6984 
      6 C4         12.5910   13.8364    4.1474 C.3       1 <0>         0.0454 
      7 C5         13.9467   14.5643    4.0488 C.3       1 <0>         0.0639 
      8 C6         10.9220   12.5295    2.8125 C.3       1 <0>         0.1472 
      9 C7          9.7178   13.2926    3.3704 C.ar      1 <0>        -0.1036 
     10 C8          9.5648   13.4533    4.7483 C.ar      1 <0>        -0.1171 
     11 C9          8.4697   14.1307    5.2598 C.ar      1 <0>        -0.0988 
     12 C10         7.5158   14.6904    4.4025 C.ar      1 <0>        -0.0166 
     13 C11         7.6521   14.5036    3.0222 C.ar      1 <0>        -0.0988 
     14 C12         8.7431   13.8037    2.5099 C.ar      1 <0>        -0.1171 
     15 C13         6.4311   15.5726    4.9475 C.2       1 <0>        -0.0159 
     16 C14         5.6221   16.4729    4.2701 C.2       1 <0>        -0.4673 
     17 C15         4.8589   17.2973    5.1369 C.ar      1 <0>         0.7512 
     18 C16         5.0612   16.9944    6.5063 C.ar      1 <0>        -0.3260 
     19 S1          6.1302   15.6145    6.6824 S.3       1 <0>         0.0032 
     20 C17         4.4707   17.7829    7.5041 C.ar      1 <0>         0.4649 
     21 C18         3.6365   18.8325    7.0715 C.ar      1 <0>        -0.2306 
     22 C19         3.4679   19.0347    5.7010 C.ar      1 <0>         0.2514 
     23 N3          4.0702   18.2958    4.7363 N.ar      1 <0>        -0.5539 
     24 C20         2.9046   19.7012    7.9871 C.1       1 <0>         0.2541 
     25 N4          2.3260   20.3910    8.7122 N.1       1 <0>        -0.3969 
     26 N5          4.7706   17.4776    8.8428 N.pl3     1 <0>        -0.6605 
     27 C21         5.2138   18.3197    9.8757 C.ar      1 <0>         0.2320 
     28 C22         5.8108   19.5516    9.5819 C.ar      1 <0>        -0.1832 
     29 C23         6.2528   20.4103   10.6008 C.ar      1 <0>         0.1649 
     30 C24         6.1015   20.0029   11.9316 C.ar      1 <0>         0.0441 
     31 C25         5.5174   18.7733   12.2328 C.ar      1 <0>        -0.0745 
     32 C26         5.0717   17.9314   11.2152 C.ar      1 <0>         0.0376 
     33 Cl1         4.3555   16.4165   11.6534 Cl        1 <0>        -0.1365 
     34 Cl2         6.6367   21.0113   13.2304 Cl        1 <0>        -0.1181 
     35 O1          6.8344   21.6427   10.3672 O.3       1 <0>        -0.3613 
     36 C27         7.0186   22.0883    9.0274 C.3       1 <0>         0.1337 
     37 H1         16.6437   14.6626    4.5437 H         1 <0>         0.1259 
     38 H2         17.1546   13.4542    3.3211 H         1 <0>         0.1259 
     39 H3         16.3752   14.9929    2.7973 H         1 <0>         0.1259 
     40 H4         14.8319   13.5451    1.5266 H         1 <0>         0.1316 
     41 H5         15.4047   12.0198    2.2442 H         1 <0>         0.1316 
     42 H6         12.9903   11.8153    1.4439 H         1 <0>         0.1042 
     43 H7         13.2709   11.4601    3.1617 H         1 <0>         0.1042 
     44 H8         11.8487   14.5787    4.4400 H         1 <0>         0.1042 
     45 H9         12.6524   13.0572    4.9097 H         1 <0>         0.1042 
     46 H10        14.2291   14.9662    5.0239 H         1 <0>         0.1316 
     47 H11        13.9460   15.3607    3.3021 H         1 <0>         0.1316 
     48 H12        10.7191   12.3482    1.7548 H         1 <0>         0.0844 
     49 H13        10.9536   11.5388    3.2644 H         1 <0>         0.0844 
     50 H14        10.2935   13.0539    5.4361 H         1 <0>         0.1344 
     51 H15         8.4042   14.2461    6.3312 H         1 <0>         0.1515 
     52 H16         6.9251   14.9118    2.3365 H         1 <0>         0.1515 
     53 H17         8.8308   13.6675    1.4415 H         1 <0>         0.1344 
     54 H18         5.6163   16.6020    3.1993 H         1 <0>         0.2459 
     55 H19         2.8269   19.8248    5.3318 H         1 <0>         0.1414 
     56 H20         4.9835   16.5025    8.9981 H         1 <0>         0.3156 
     57 H21         5.9321   19.8322    8.5474 H         1 <0>         0.1539 
     58 H22         5.4083   18.4711   13.2637 H         1 <0>         0.1680 
     59 H23         7.6554   21.4053    8.4642 H         1 <0>         0.0442 
     60 H24         6.0668   22.2014    8.5056 H         1 <0>         0.0442 
     61 H25         7.5097   23.0612    9.0332 H         1 <0>         0.0442 
     62 H26        15.0516   12.8419    4.3933 H         1 <0>         0.3080 
@<TRIPOS>BOND
     1    1    2 1    
     2    1   37 1    
     3    1   38 1    
     4    1   39 1    
     5    2    7 1    
     6    2    3 1    
     7    2   62 1    
     8    3    4 1    
     9    3   40 1    
    10    3   41 1    
    11    4    5 1    
    12    4   42 1    
    13    4   43 1    
    14    5    6 1    
    15    5    8 1    
    16    6    7 1    
    17    6   44 1    
    18    6   45 1    
    19    7   46 1    
    20    7   47 1    
    21    8    9 1    
    22    8   48 1    
    23    8   49 1    
    24    9   14 ar   
    25    9   10 ar   
    26   10   11 ar   
    27   10   50 1    
    28   11   12 ar   
    29   11   51 1    
    30   12   13 ar   
    31   12   15 1    
    32   13   14 ar   
    33   13   52 1    
    34   14   53 1    
    35   15   19 1    
    36   15   16 2    
    37   16   17 1    
    38   16   54 1    
    39   17   23 ar   
    40   17   18 ar   
    41   18   19 1    
    42   18   20 ar   
    43   20   21 ar   
    44   20   26 1    
    45   21   22 ar   
    46   21   24 1    
    47   22   23 ar   
    48   22   55 1    
    49   24   25 3    
    50   26   27 1    
    51   26   56 1    
    52   27   32 ar   
    53   27   28 ar   
    54   28   29 ar   
    55   28   57 1    
    56   29   30 ar   
    57   29   35 1    
    58   30   31 ar   
    59   30   34 1    
    60   31   32 ar   
    61   31   58 1    
    62   32   33 1    
    63   35   36 1    
    64   36   59 1    
    65   36   60 1    
    66   36   61 1    
@<TRIPOS>SUBSTRUCTURE
     1 <0>         1 GROUP             0       ****    0 ROOT    
@<TRIPOS>MOLECULE
CHEMBL364955
62   66    1
SMALL
USER_CHARGES


@<TRIPOS>ATOM
      1 C1          8.4711   12.3660    3.5928 C.3       1 <0>         0.0455 
      2 N1          8.4736   12.4115    2.1323 N.3       1 <0>        -0.6943 
      3 C2          7.0938   12.4935    1.6321 C.3       1 <0>         0.0432 
      4 C3          7.0589   12.5599    0.0879 C.3       1 <0>         0.0632 
      5 N2          7.7883   11.3235   -0.4847 N.4       1 <0>        -0.4383 
      6 C4          9.2337   11.2680    0.0631 C.3       1 <0>         0.0632 
      7 C5          9.1880   11.2414    1.6046 C.3       1 <0>         0.0432 
      8 C6          7.7569   11.3106   -2.0340 C.3       1 <0>         0.0906 
      9 C7          8.3981   10.0752   -2.6517 C.ar      1 <0>        -0.1670 
     10 C8          9.3677   10.2225   -3.6440 C.ar      1 <0>        -0.1029 
     11 C9         10.0524    9.1068   -4.1170 C.ar      1 <0>        -0.0973 
     12 C10         9.7921    7.8386   -3.5844 C.ar      1 <0>         0.0208 
     13 C11         8.7678    7.6893   -2.6441 C.ar      1 <0>        -0.0973 
     14 C12         8.0679    8.8005   -2.1847 C.ar      1 <0>        -0.1029 
     15 C13        10.6324    6.6477   -3.9249 C.2       1 <0>        -0.0453 
     16 C14        10.2908    5.3056   -3.8894 C.2       1 <0>        -0.4495 
     17 C15        11.4001    4.4419   -4.0800 C.ar      1 <0>         0.7445 
     18 C16        12.6152    5.1408   -4.2973 C.ar      1 <0>        -0.3215 
     19 S1         12.3267    6.8769   -4.3360 S.3       1 <0>         0.0088 
     20 C17        13.8295    4.4391   -4.3984 C.ar      1 <0>         0.4661 
     21 C18        13.7560    3.0332   -4.3374 C.ar      1 <0>        -0.2234 
     22 C19        12.5081    2.4345   -4.1584 C.ar      1 <0>         0.2517 
     23 N3         11.3399    3.1118   -4.0330 N.ar      1 <0>        -0.5456 
     24 C20        14.9123    2.1578   -4.4941 C.1       1 <0>         0.2504 
     25 N4         15.8285    1.4629   -4.6192 N.1       1 <0>        -0.3882 
     26 N5         15.0015    5.1995   -4.5569 N.pl3     1 <0>        -0.6593 
     27 C21        16.2949    5.0568   -4.0267 C.ar      1 <0>         0.2277 
     28 C22        16.5039    4.4464   -2.7829 C.ar      1 <0>        -0.1836 
     29 C23        17.7916    4.3556   -2.2245 C.ar      1 <0>         0.1651 
     30 C24        18.8734    4.8724   -2.9457 C.ar      1 <0>         0.0455 
     31 C25        18.6747    5.4560   -4.1931 C.ar      1 <0>        -0.0740 
     32 C26        17.3961    5.5553   -4.7373 C.ar      1 <0>         0.0385 
     33 Cl1        17.2163    6.3055   -6.2899 Cl        1 <0>        -0.1350 
     34 Cl2        20.4807    4.7946   -2.3121 Cl        1 <0>        -0.1145 
     35 O1         18.0679    3.7840   -0.9969 O.3       1 <0>        -0.3611 
     36 C27        17.0227    3.1567   -0.2676 C.3       1 <0>         0.1334 
     37 H1          9.4903   12.3349    3.9778 H         1 <0>         0.0849 
     38 H2          7.9942   13.2525    4.0097 H         1 <0>         0.0849 
     39 H3          7.9432   11.4882    3.9719 H         1 <0>         0.0849 
     40 H4          6.5644   11.5956    1.9612 H         1 <0>         0.1027 
     41 H5          6.5879   13.3686    2.0434 H         1 <0>         0.1027 
     42 H6          6.0282   12.4997   -0.2657 H         1 <0>         0.1303 
     43 H7          7.5434   13.4542   -0.3099 H         1 <0>         0.1303 
     44 H8          9.6614   10.3305   -0.2977 H         1 <0>         0.1303 
     45 H9          9.7843   12.1215   -0.3372 H         1 <0>         0.1303 
     46 H10        10.2068   11.1960    1.9941 H         1 <0>         0.1027 
     47 H11         8.6545   10.3434    1.9230 H         1 <0>         0.1027 
     48 H12         6.7038   11.3739   -2.3139 H         1 <0>         0.1223 
     49 H13         8.2576   12.2308   -2.3512 H         1 <0>         0.1223 
     50 H14         9.6308   11.2035   -4.0176 H         1 <0>         0.1388 
     51 H15        10.8309    9.2505   -4.8525 H         1 <0>         0.1636 
     52 H16         8.5479    6.7207   -2.2195 H         1 <0>         0.1636 
     53 H17         7.3126    8.6686   -1.4238 H         1 <0>         0.1388 
     54 H18         9.3000    4.9363   -3.6753 H         1 <0>         0.2465 
     55 H19        12.4124    1.3580   -4.1029 H         1 <0>         0.1447 
     56 H20        14.8267    6.1170   -4.9354 H         1 <0>         0.3148 
     57 H21        15.6514    4.0587   -2.2459 H         1 <0>         0.1527 
     58 H22        19.5225    5.8435   -4.7362 H         1 <0>         0.1693 
     59 H23        17.4145    2.7714    0.6734 H         1 <0>         0.0448 
     60 H24        16.2193    3.8535   -0.0263 H         1 <0>         0.0448 
     61 H25        16.6189    2.3135   -0.8289 H         1 <0>         0.0448 
     62 H26         7.3104   10.4965   -0.1527 H         1 <0>         0.3013 
@<TRIPOS>BOND
     1    1    2 1    
     2    1   37 1    
     3    1   38 1    
     4    1   39 1    
     5    2    7 1    
     6    2    3 1    
     7    3    4 1    
     8    3   40 1    
     9    3   41 1    
    10    4    5 1    
    11    4   42 1    
    12    4   43 1    
    13    5    6 1    
    14    5    8 1    
    15    5   62 1    
    16    6    7 1    
    17    6   44 1    
    18    6   45 1    
    19    7   46 1    
    20    7   47 1    
    21    8    9 1    
    22    8   48 1    
    23    8   49 1    
    24    9   14 ar   
    25    9   10 ar   
    26   10   11 ar   
    27   10   50 1    
    28   11   12 ar   
    29   11   51 1    
    30   12   13 ar   
    31   12   15 1    
    32   13   14 ar   
    33   13   52 1    
    34   14   53 1    
    35   15   19 1    
    36   15   16 2    
    37   16   17 1    
    38   16   54 1    
    39   17   23 ar   
    40   17   18 ar   
    41   18   19 1    
    42   18   20 ar   
    43   20   21 ar   
    44   20   26 1    
    45   21   22 ar   
    46   21   24 1    
    47   22   23 ar   
    48   22   55 1    
    49   24   25 3    
    50   26   27 1    
    51   26   56 1    
    52   27   32 ar   
    53   27   28 ar   
    54   28   29 ar   
    55   28   57 1    
    56   29   30 ar   
    57   29   35 1    
    58   30   31 ar   
    59   30   34 1    
    60   31   32 ar   
    61   31   58 1    
    62   32   33 1    
    63   35   36 1    
    64   36   59 1    
    65   36   60 1    
    66   36   61 1    
@<TRIPOS>SUBSTRUCTURE
     1 <0>         1 GROUP             0       ****    0 ROOT    
@<TRIPOS>MOLECULE
CHEMBL259084
48   52    1
SMALL
USER_CHARGES


@<TRIPOS>ATOM
      1 C1          3.5293   14.5497   -3.1593 C.ar      1 <0>        -0.0766 
      2 C2          4.8273   14.1587   -2.8376 C.ar      1 <0>        -0.1898 
      3 C3          5.1616   13.8413   -1.5213 C.ar      1 <0>         0.2250 
      4 C4          4.1905   13.9189   -0.5095 C.ar      1 <0>        -0.1029 
      5 C5          2.8823   14.3050   -0.8402 C.ar      1 <0>         0.2250 
      6 C6          2.5596   14.6175   -2.1610 C.ar      1 <0>        -0.1898 
      7 F1          1.9142   14.3789    0.1048 F         1 <0>        -0.1645 
      8 C7          4.5582   13.6104    0.8792 C.2       1 <0>         0.2279 
      9 N1          4.6997   14.5967    1.6896 N.2       1 <0>        -0.4180 
     10 C8          5.1058   14.3390    3.0614 C.3       1 <0>         0.0755 
     11 C9          6.5553   13.8696    3.1085 C.ar      1 <0>        -0.2502 
     12 C10         7.5996   14.6279    3.6434 C.ar      1 <0>         0.0809 
     13 N2          8.8945   14.2264    3.6054 N.ar      1 <0>        -0.2997 
     14 C11         9.1409   13.0189    3.0305 C.ar      1 <0>         0.3905 
     15 N3          8.1940   12.2003    2.5147 N.ar      1 <0>        -0.3204 
     16 C12         6.9001   12.6247    2.5534 C.ar      1 <0>         0.1597 
     17 C13         5.8728   11.7050    1.9611 C.ar      1 <0>        -0.0023 
     18 C14         4.7733   12.1669    1.1917 C.ar      1 <0>        -0.0514 
     19 C15         3.8647   11.2191    0.6882 C.ar      1 <0>        -0.1061 
     20 C16         4.0219    9.8577    0.9366 C.ar      1 <0>         0.0722 
     21 C17         5.0973    9.4116    1.6944 C.ar      1 <0>        -0.1159 
     22 C18         6.0118   10.3287    2.1998 C.ar      1 <0>        -0.0773 
     23 Cl1         2.8815    8.7260    0.3079 Cl        1 <0>        -0.1583 
     24 N4         10.4525   12.5614    2.8575 N.pl3     1 <0>        -0.5990 
     25 C19        11.7090   13.0654    3.2234 C.ar      1 <0>         0.1689 
     26 C20        12.8232   12.5353    2.5765 C.ar      1 <0>        -0.1996 
     27 C21        14.0976   13.0219    2.8562 C.ar      1 <0>        -0.0744 
     28 C22        14.2747   14.0628    3.7772 C.ar      1 <0>        -0.0512 
     29 C23        13.1562   14.5473    4.4647 C.ar      1 <0>        -0.0744 
     30 C24        11.8855   14.0499    4.1981 C.ar      1 <0>        -0.1996 
     31 C25        15.6302   14.6543    4.0172 C.2       1 <0>         0.8295 
     32 O1         16.5642   14.3023    3.2630 O.co2     1 <0>        -0.8316 
     33 O2         15.7585   15.4577    4.9697 O.co2     1 <0>        -0.8316 
     34 F2          6.4308   13.4537   -1.2451 F         1 <0>        -0.1645 
     35 H1          3.2755   14.7969   -4.1796 H         1 <0>         0.1409 
     36 H2          5.5830   14.1032   -3.6073 H         1 <0>         0.1496 
     37 H3          1.5533   14.9178   -2.4089 H         1 <0>         0.1496 
     38 H4          4.9919   15.2578    3.6386 H         1 <0>         0.0926 
     39 H5          4.4510   13.6106    3.5479 H         1 <0>         0.0926 
     40 H6          7.4053   15.5925    4.0882 H         1 <0>         0.1616 
     41 H7          3.0145   11.5329    0.0987 H         1 <0>         0.1441 
     42 H8          5.2241    8.3579    1.8970 H         1 <0>         0.1513 
     43 H9          6.8317    9.9601    2.7979 H         1 <0>         0.1702 
     44 H10        10.4952   11.7164    2.3066 H         1 <0>         0.3159 
     45 H11        12.7100   11.7561    1.8353 H         1 <0>         0.1172 
     46 H12        14.9406   12.6055    2.3223 H         1 <0>         0.1455 
     47 H13        13.2651   15.3151    5.2177 H         1 <0>         0.1455 
     48 H14        11.0570   14.4490    4.7588 H         1 <0>         0.1172 
@<TRIPOS>BOND
     1    1    6 ar   
     2    1    2 ar   
     3    1   35 1    
     4    2    3 ar   
     5    2   36 1    
     6    3    4 ar   
     7    3   34 1    
     8    4    5 ar   
     9    4    8 1    
    10    5    6 ar   
    11    5    7 1    
    12    6   37 1    
    13    8   18 1    
    14    8    9 2    
    15    9   10 1    
    16   10   11 1    
    17   10   38 1    
    18   10   39 1    
    19   11   16 ar   
    20   11   12 ar   
    21   12   13 ar   
    22   12   40 1    
    23   13   14 ar   
    24   14   15 ar   
    25   14   24 1    
    26   15   16 ar   
    27   16   17 1    
    28   17   22 ar   
    29   17   18 ar   
    30   18   19 ar   
    31   19   20 ar   
    32   19   41 1    
    33   20   21 ar   
    34   20   23 1    
    35   21   22 ar   
    36   21   42 1    
    37   22   43 1    
    38   24   25 1    
    39   24   44 1    
    40   25   30 ar   
    41   25   26 ar   
    42   26   27 ar   
    43   26   45 1    
    44   27   28 ar   
    45   27   46 1    
    46   28   29 ar   
    47   28   31 1    
    48   29   30 ar   
    49   29   47 1    
    50   30   48 1    
    51   31   32 2    
    52   31   33 1    
@<TRIPOS>SUBSTRUCTURE
     1 <0>         1 GROUP             0       ****    0 ROOT    
@<TRIPOS>MOLECULE
CHEMBL259084
49   53    1
SMALL
USER_CHARGES


@<TRIPOS>ATOM
      1 C1          5.1346   12.7881   -4.9258 C.ar      1 <0>        -0.0300 
      2 C2          6.4275   12.6513   -4.4294 C.ar      1 <0>        -0.1718 
      3 C3          6.6388   12.3380   -3.0870 C.ar      1 <0>         0.2410 
      4 C4          5.5440   12.1608   -2.2245 C.ar      1 <0>        -0.1724 
      5 C5          4.2414   12.2952   -2.7314 C.ar      1 <0>         0.2410 
      6 C6          4.0436   12.6090   -4.0766 C.ar      1 <0>        -0.1718 
      7 F1          3.1601   12.1292   -1.9319 F         1 <0>        -0.1503 
      8 C7          5.7778   11.8464   -0.8195 C.cat     1 <0>         0.0621 
      9 N1          5.6200   12.7902    0.0984 N.pl3     1 <0>         0.0587 
     10 C8          5.9039   12.6719    1.5502 C.3       1 <0>        -0.0783 
     11 C9          7.3770   12.3978    1.7970 C.ar      1 <0>        -0.3095 
     12 C10         8.1960   13.2548    2.5350 C.ar      1 <0>         0.0879 
     13 N2          9.5278   13.0564    2.6767 N.ar      1 <0>        -0.2353 
     14 C11        10.0589   11.9692    2.0624 C.ar      1 <0>         0.4056 
     15 N3          9.3404   11.0595    1.3584 N.ar      1 <0>        -0.2959 
     16 C12         7.9955   11.2637    1.2345 C.ar      1 <0>         0.1537 
     17 C13         7.2372   10.2128    0.4698 C.ar      1 <0>         0.0355 
     18 C14         6.2351   10.4863   -0.4969 C.ar      1 <0>        -0.0474 
     19 C15         5.6283    9.4107   -1.1712 C.ar      1 <0>        -0.0637 
     20 C16         5.9784    8.0930   -0.8867 C.ar      1 <0>         0.0626 
     21 C17         6.9390    7.8247    0.0803 C.ar      1 <0>        -0.0524 
     22 C18         7.5550    8.8772    0.7497 C.ar      1 <0>        -0.0773 
     23 Cl1         5.2100    6.7962   -1.7254 Cl        1 <0>        -0.1005 
     24 N4         11.4468   11.7721    2.0593 N.pl3     1 <0>        -0.5843 
     25 C19        12.5218   12.4871    2.6155 C.ar      1 <0>         0.1364 
     26 C20        13.7924   12.2557    2.0822 C.ar      1 <0>        -0.1962 
     27 C21        14.8904   12.9680    2.5571 C.ar      1 <0>        -0.0707 
     28 C22        14.7399   13.9180    3.5800 C.ar      1 <0>        -0.0350 
     29 C23        13.4694   14.1130    4.1371 C.ar      1 <0>        -0.0707 
     30 C24        12.3722   13.4047    3.6614 C.ar      1 <0>        -0.1962 
     31 C25        15.9078   14.7243    4.0630 C.2       1 <0>         0.8258 
     32 O1         16.9830   14.6298    3.4300 O.co2     1 <0>        -0.8193 
     33 O2         15.7432   15.4542    5.0677 O.co2     1 <0>        -0.8193 
     34 F2          7.9103   12.2186   -2.6372 F         1 <0>        -0.1503 
     35 H1          4.9777   13.0396   -5.9652 H         1 <0>         0.1699 
     36 H2          7.2813   12.8022   -5.0762 H         1 <0>         0.1771 
     37 H3          3.0395   12.7185   -4.4585 H         1 <0>         0.1771 
     38 H4          5.5751   13.6063    2.0080 H         1 <0>         0.1239 
     39 H5          5.2765   11.8655    1.9349 H         1 <0>         0.1239 
     40 H6          7.7918   14.1379    3.0067 H         1 <0>         0.1703 
     41 H7          4.8623    9.5770   -1.9160 H         1 <0>         0.1557 
     42 H8          7.2123    6.8060    0.3111 H         1 <0>         0.1776 
     43 H9          8.3015    8.6532    1.4985 H         1 <0>         0.1925 
     44 H10        11.7361   10.9820    1.5006 H         1 <0>         0.3228 
     45 H11        13.9311   11.5564    1.2667 H         1 <0>         0.1147 
     46 H12        15.8589   12.7953    2.1095 H         1 <0>         0.1536 
     47 H13        13.3247   14.8233    4.9394 H         1 <0>         0.1536 
     48 H14        11.4204   13.5782    4.1342 H         1 <0>         0.1147 
     49 H15         5.3163   13.7063   -0.2208 H         1 <0>         0.2609 
@<TRIPOS>BOND
     1    1    6 ar   
     2    1    2 ar   
     3    1   35 1    
     4    2    3 ar   
     5    2   36 1    
     6    3    4 ar   
     7    3   34 1    
     8    4    5 ar   
     9    4    8 1    
    10    5    6 ar   
    11    5    7 1    
    12    6   37 1    
    13    8   18 1    
    14    8    9 ar   
    15    9   10 1    
    16    9   49 1    
    17   10   11 1    
    18   10   38 1    
    19   10   39 1    
    20   11   16 ar   
    21   11   12 ar   
    22   12   13 ar   
    23   12   40 1    
    24   13   14 ar   
    25   14   15 ar   
    26   14   24 1    
    27   15   16 ar   
    28   16   17 1    
    29   17   22 ar   
    30   17   18 ar   
    31   18   19 ar   
    32   19   20 ar   
    33   19   41 1    
    34   20   21 ar   
    35   20   23 1    
    36   21   22 ar   
    37   21   42 1    
    38   22   43 1    
    39   24   25 1    
    40   24   44 1    
    41   25   30 ar   
    42   25   26 ar   
    43   26   27 ar   
    44   26   45 1    
    45   27   28 ar   
    46   27   46 1    
    47   28   29 ar   
    48   28   31 1    
    49   29   30 ar   
    50   29   47 1    
    51   30   48 1    
    52   31   32 2    
    53   31   33 1    
@<TRIPOS>SUBSTRUCTURE
     1 <0>         1 GROUP             0       ****    0 ROOT    
@<TRIPOS>MOLECULE
CHEMBL20252
54   58    1
SMALL
USER_CHARGES


@<TRIPOS>ATOM
      1 C1          7.9950   11.4965    1.4938 C.3       1 <0>        -0.1228 
      2 C2          9.3161   12.0627    1.9991 C.ar      1 <0>        -0.1065 
      3 C3         10.5076   11.4539    1.5996 C.ar      1 <0>        -0.0972 
      4 C4         11.7343   11.9401    2.0437 C.ar      1 <0>        -0.1416 
      5 C5         11.7922   13.0309    2.9197 C.ar      1 <0>         0.0467 
      6 C6         10.5992   13.6200    3.3423 C.ar      1 <0>        -0.1522 
      7 C7          9.3641   13.1578    2.8771 C.ar      1 <0>         0.2264 
      8 N1          8.1965   13.8442    3.2391 N.pl3     1 <0>        -0.6030 
      9 C8          7.7597   14.2334    4.5074 C.ar      1 <0>         0.3652 
     10 N2          8.2414   13.5839    5.6003 N.ar      1 <0>        -0.3175 
     11 C9          7.7048   13.9390    6.7941 C.ar      1 <0>         0.0701 
     12 C10         6.7473   14.9476    6.9154 C.ar      1 <0>        -0.2675 
     13 C11         6.3362   15.5995    5.7426 C.ar      1 <0>         0.1610 
     14 N3          6.8323   15.2219    4.5288 N.ar      1 <0>        -0.3064 
     15 C12         5.3585   16.7348    5.7443 C.ar      1 <0>        -0.0921 
     16 C13         4.7004   17.1559    4.5741 C.ar      1 <0>        -0.0610 
     17 C14         3.8231   18.2409    4.6012 C.ar      1 <0>        -0.1819 
     18 C15         3.6142   18.8946    5.8140 C.ar      1 <0>        -0.0085 
     19 N4          4.2272   18.5210    6.9628 N.ar      1 <0>        -0.2508 
     20 C16         5.0758   17.4628    6.9129 C.ar      1 <0>         0.0107 
     21 N5         12.9762   13.6050    3.4121 N.am      1 <0>        -0.3827 
     22 C17        14.2680   13.3492    3.1047 C.2       1 <0>         0.5497 
     23 O1         14.6465   12.4817    2.3166 O.2       1 <0>        -0.5019 
     24 C18        15.2830   14.2539    3.7696 C.ar      1 <0>        -0.1575 
     25 C19        14.9479   15.0666    4.8649 C.ar      1 <0>        -0.1015 
     26 C20        15.9030   15.8536    5.5024 C.ar      1 <0>        -0.1185 
     27 C21        17.2376   15.8683    5.0488 C.ar      1 <0>        -0.0273 
     28 C22        18.2242   16.6766    5.6642 C.ar      1 <0>        -0.1194 
     29 C23        19.5336   16.6721    5.1920 C.ar      1 <0>        -0.1201 
     30 C24        19.8869   15.8723    4.1117 C.ar      1 <0>        -0.1262 
     31 C25        18.9369   15.0696    3.4865 C.ar      1 <0>        -0.1121 
     32 C26        17.5969   15.0543    3.9358 C.ar      1 <0>        -0.0414 
     33 C27        16.6071   14.2579    3.3099 C.ar      1 <0>        -0.0815 
     34 H1          7.5198   12.1895    0.7995 H         1 <0>         0.0742 
     35 H2          8.1232   10.5308    1.0021 H         1 <0>         0.0742 
     36 H3          7.3123   11.3386    2.3300 H         1 <0>         0.0742 
     37 H4         10.4917   10.6033    0.9324 H         1 <0>         0.1368 
     38 H5         12.6246   11.4537    1.6833 H         1 <0>         0.1375 
     39 H6         10.6229   14.4684    4.0106 H         1 <0>         0.1527 
     40 H7          7.6545   14.2126    2.4732 H         1 <0>         0.3282 
     41 H8          8.0299   13.3792    7.6606 H         1 <0>         0.1673 
     42 H9          6.3377   15.1805    7.8864 H         1 <0>         0.1616 
     43 H10         4.8643   16.6456    3.6358 H         1 <0>         0.1412 
     44 H11         3.3189   18.5665    3.7029 H         1 <0>         0.1472 
     45 H12         2.9425   19.7386    5.8804 H         1 <0>         0.1609 
     46 H13         5.5509   17.2266    7.8521 H         1 <0>         0.1638 
     47 H14        12.8308   14.3581    4.0623 H         1 <0>         0.3017 
     48 H15        13.9473   15.0830    5.2704 H         1 <0>         0.1394 
     49 H16        15.6317   16.4582    6.3548 H         1 <0>         0.1366 
     50 H17        17.9524   17.3012    6.5023 H         1 <0>         0.1338 
     51 H18        20.2817   17.2906    5.6662 H         1 <0>         0.1320 
     52 H19        20.9048   15.8710    3.7513 H         1 <0>         0.1323 
     53 H20        19.2250   14.4532    2.6486 H         1 <0>         0.1339 
     54 H21        16.9015   13.6442    2.4682 H         1 <0>         0.1394 
@<TRIPOS>BOND
     1    1    2 1    
     2    1   34 1    
     3    1   35 1    
     4    1   36 1    
     5    2    7 ar   
     6    2    3 ar   
     7    3    4 ar   
     8    3   37 1    
     9    4    5 ar   
    10    4   38 1    
    11    5    6 ar   
    12    5   21 1    
    13    6    7 ar   
    14    6   39 1    
    15    7    8 1    
    16    8    9 1    
    17    8   40 1    
    18    9   14 ar   
    19    9   10 ar   
    20   10   11 ar   
    21   11   12 ar   
    22   11   41 1    
    23   12   13 ar   
    24   12   42 1    
    25   13   14 ar   
    26   13   15 1    
    27   15   20 ar   
    28   15   16 ar   
    29   16   17 ar   
    30   16   43 1    
    31   17   18 ar   
    32   17   44 1    
    33   18   19 ar   
    34   18   45 1    
    35   19   20 ar   
    36   20   46 1    
    37   21   22 am   BACKBONE|DICT|INTERRES
    38   21   47 1    
    39   22   23 2    
    40   22   24 1    
    41   24   33 ar   
    42   24   25 ar   
    43   25   26 ar   
    44   25   48 1    
    45   26   27 ar   
    46   26   49 1    
    47   27   32 ar   
    48   27   28 ar   
    49   28   29 ar   
    50   28   50 1    
    51   29   30 ar   
    52   29   51 1    
    53   30   31 ar   
    54   30   52 1    
    55   31   32 ar   
    56   31   53 1    
    57   32   33 ar   
    58   33   54 1    
@<TRIPOS>SUBSTRUCTURE
     1 <0>         1 GROUP             0       ****    0 ROOT    
@<TRIPOS>MOLECULE
CHEMBL205723
71   75    1
SMALL
USER_CHARGES


@<TRIPOS>ATOM
      1 C1          8.9053   11.0400   -0.1667 C.3       1 <0>        -0.1273 
      2 C2          8.1732   11.4060    1.1202 C.ar      1 <0>        -0.0922 
      3 C3          6.7822   11.2504    1.1736 C.ar      1 <0>        -0.0916 
      4 C4          6.0651   11.5948    2.3206 C.ar      1 <0>        -0.1372 
      5 C5          6.7403   12.0832    3.4467 C.ar      1 <0>         0.0155 
      6 C6          8.1274   12.2071    3.3975 C.ar      1 <0>        -0.1504 
      7 C7          8.8619   11.9060    2.2400 C.ar      1 <0>         0.2337 
      8 N1         10.2639   12.0878    2.1936 N.pl3     1 <0>        -0.6041 
      9 C8         11.0965   12.9620    2.9108 C.ar      1 <0>         0.3638 
     10 N2         10.5112   13.9115    3.6834 N.ar      1 <0>        -0.3319 
     11 C9         11.3191   14.6534    4.4644 C.ar      1 <0>         0.0747 
     12 C10        12.7034   14.5158    4.4501 C.ar      1 <0>        -0.2601 
     13 C11        13.2484   13.5935    3.5473 C.ar      1 <0>         0.1678 
     14 N3         12.4417   12.7796    2.7989 N.ar      1 <0>        -0.3010 
     15 C12        14.7264   13.4857    3.3564 C.ar      1 <0>        -0.1473 
     16 C13        15.5907   14.5506    3.6690 C.ar      1 <0>         0.0082 
     17 N4         16.9426   14.4803    3.5687 N.ar      1 <0>        -0.1764 
     18 C14        17.4375   13.3050    3.1142 C.ar      1 <0>        -0.0292 
     19 N5         16.7071   12.2294    2.7370 N.ar      1 <0>        -0.1764 
     20 C15        15.3577   12.3343    2.8645 C.ar      1 <0>         0.0082 
     21 N6          6.1364   12.5187    4.6424 N.am      1 <0>        -0.3490 
     22 C16         4.8344   12.5849    4.9950 C.2       1 <0>         0.5356 
     23 O1          3.9053   12.0614    4.3806 O.2       1 <0>        -0.4781 
     24 C17         4.5645   13.3953    6.2427 C.ar      1 <0>        -0.1189 
     25 C18         5.2998   14.5555    6.5174 C.ar      1 <0>        -0.0640 
     26 C19         5.0352   15.3106    7.6549 C.ar      1 <0>        -0.1262 
     27 C20         4.0342   14.9298    8.5549 C.ar      1 <0>        -0.1061 
     28 C21         3.2607   13.7777    8.2821 C.ar      1 <0>        -0.0744 
     29 C22         3.5437   13.0246    7.1284 C.ar      1 <0>        -0.0492 
     30 C23         2.1081   13.3400    9.1992 C.3       1 <0>         0.4638 
     31 F1          1.4154   12.3134    8.7072 F         1 <0>        -0.1670 
     32 F2          2.5793   12.9847   10.3937 F         1 <0>        -0.1670 
     33 F3          1.2523   14.3503    9.3597 F         1 <0>        -0.1670 
     34 C24         3.8283   15.7963    9.8037 C.3       1 <0>         0.0848 
     35 N7          5.1212   16.1074   10.6011 N.4       1 <0>        -0.4384 
     36 C25         5.7673   14.8105   11.1437 C.3       1 <0>         0.0635 
     37 C26         7.0393   15.1437   11.9518 C.3       1 <0>         0.0435 
     38 N8          6.7646   16.1158   13.0179 N.3       1 <0>        -0.6947 
     39 C27         6.1842   17.3643   12.5050 C.3       1 <0>         0.0435 
     40 C28         4.8561   17.0919   11.7622 C.3       1 <0>         0.0635 
     41 C29         7.9955   16.4025   13.7530 C.3       1 <0>         0.0460 
     42 H1          9.6359   10.2545    0.0288 H         1 <0>         0.0805 
     43 H2          8.2293   10.6893   -0.9464 H         1 <0>         0.0805 
     44 H3          9.4470   11.9040   -0.5543 H         1 <0>         0.0805 
     45 H4          6.2457   10.8694    0.3170 H         1 <0>         0.1457 
     46 H5          4.9927   11.4764    2.3092 H         1 <0>         0.1366 
     47 H6          8.6352   12.5320    4.2902 H         1 <0>         0.1488 
     48 H7         10.7601   11.4194    1.6241 H         1 <0>         0.3308 
     49 H8         10.8247   15.3825    5.0838 H         1 <0>         0.1689 
     50 H9         13.3187   15.1376    5.0812 H         1 <0>         0.1666 
     51 H10        15.2144   15.4912    4.0381 H         1 <0>         0.1685 
     52 H11        18.5115   13.2275    3.0153 H         1 <0>         0.1989 
     53 H12        14.7860   11.4579    2.5893 H         1 <0>         0.1685 
     54 H13         6.7823   12.8906    5.3205 H         1 <0>         0.2940 
     55 H14         6.0765   14.8955    5.8478 H         1 <0>         0.1685 
     56 H15         5.6237   16.1986    7.8344 H         1 <0>         0.1386 
     57 H16         2.9681   12.1312    6.9185 H         1 <0>         0.1778 
     58 H17         3.4212   16.7662    9.5141 H         1 <0>         0.1283 
     59 H18         3.1556   15.3586   10.5390 H         1 <0>         0.1283 
     60 H19         5.0227   14.2541   11.7167 H         1 <0>         0.1339 
     61 H20         6.0445   14.2538   10.2546 H         1 <0>         0.1339 
     62 H21         7.4561   14.2187   12.3558 H         1 <0>         0.1030 
     63 H22         7.7694   15.5990   11.2793 H         1 <0>         0.1030 
     64 H23         6.0009   18.0654   13.3223 H         1 <0>         0.1030 
     65 H24         6.9005   17.8148   11.8128 H         1 <0>         0.1030 
     66 H25         4.4836   18.0103   11.3066 H         1 <0>         0.1339 
     67 H26         4.0932   16.6543   12.4097 H         1 <0>         0.1339 
     68 H27         8.7515   16.8685   13.1165 H         1 <0>         0.0849 
     69 H28         7.7981   17.0739   14.5907 H         1 <0>         0.0849 
     70 H29         8.4221   15.4874   14.1662 H         1 <0>         0.0849 
     71 H30         5.7859   16.5438    9.9788 H         1 <0>         0.2967 
@<TRIPOS>BOND
     1    1    2 1    
     2    1   42 1    
     3    1   43 1    
     4    1   44 1    
     5    2    7 ar   
     6    2    3 ar   
     7    3    4 ar   
     8    3   45 1    
     9    4    5 ar   
    10    4   46 1    
    11    5    6 ar   
    12    5   21 1    
    13    6    7 ar   
    14    6   47 1    
    15    7    8 1    
    16    8    9 1    
    17    8   48 1    
    18    9   14 ar   
    19    9   10 ar   
    20   10   11 ar   
    21   11   12 ar   
    22   11   49 1    
    23   12   13 ar   
    24   12   50 1    
    25   13   14 ar   
    26   13   15 1    
    27   15   20 ar   
    28   15   16 ar   
    29   16   17 ar   
    30   16   51 1    
    31   17   18 ar   
    32   18   19 ar   
    33   18   52 1    
    34   19   20 ar   
    35   20   53 1    
    36   21   22 am   BACKBONE|DICT|INTERRES
    37   21   54 1    
    38   22   23 2    
    39   22   24 1    
    40   24   29 ar   
    41   24   25 ar   
    42   25   26 ar   
    43   25   55 1    
    44   26   27 ar   
    45   26   56 1    
    46   27   28 ar   
    47   27   34 1    
    48   28   29 ar   
    49   28   30 1    
    50   29   57 1    
    51   30   31 1    
    52   30   32 1    
    53   30   33 1    
    54   34   35 1    
    55   34   58 1    
    56   34   59 1    
    57   35   40 1    
    58   35   36 1    
    59   35   71 1    
    60   36   37 1    
    61   36   60 1    
    62   36   61 1    
    63   37   38 1    
    64   37   62 1    
    65   37   63 1    
    66   38   39 1    
    67   38   41 1    
    68   39   40 1    
    69   39   64 1    
    70   39   65 1    
    71   40   66 1    
    72   40   67 1    
    73   41   68 1    
    74   41   69 1    
    75   41   70 1    
@<TRIPOS>SUBSTRUCTURE
     1 <0>         1 GROUP             0       ****    0 ROOT    
@<TRIPOS>MOLECULE
CHEMBL230178
61   64    1
SMALL
USER_CHARGES


@<TRIPOS>ATOM
      1 C1         10.0316   14.0046    6.5339 C.3       1 <0>        -0.1235 
      2 C2          9.7052   13.5537    5.1118 C.ar      1 <0>        -0.1042 
      3 C3          8.4192   13.0680    4.8642 C.ar      1 <0>        -0.0964 
      4 C4          8.0753   12.5637    3.6137 C.ar      1 <0>        -0.1399 
      5 C5          9.0198   12.5339    2.5778 C.ar      1 <0>         0.0408 
      6 C6         10.2939   13.0536    2.8157 C.ar      1 <0>        -0.1518 
      7 C7         10.6599   13.5504    4.0738 C.ar      1 <0>         0.2275 
      8 N1         11.9557   14.0558    4.2995 N.pl3     1 <0>        -0.6032 
      9 C8         13.2021   13.7342    3.7412 C.ar      1 <0>         0.3648 
     10 N2         13.3234   12.6540    2.9275 N.ar      1 <0>        -0.3198 
     11 C9         14.5666   12.3693    2.4661 C.ar      1 <0>         0.0710 
     12 C10        15.6831   13.1315    2.8148 C.ar      1 <0>        -0.2665 
     13 C11        15.4821   14.2302    3.6648 C.ar      1 <0>         0.1617 
     14 N3         14.2302   14.5334    4.1205 N.ar      1 <0>        -0.3062 
     15 C12        16.6131   15.0538    4.2137 C.ar      1 <0>        -0.0930 
     16 C13        16.4471   15.8875    5.3372 C.ar      1 <0>        -0.0609 
     17 C14        17.5177   16.6238    5.8452 C.ar      1 <0>        -0.1816 
     18 C15        18.7558   16.5125    5.2170 C.ar      1 <0>        -0.0082 
     19 N4         18.9601   15.7172    4.1393 N.ar      1 <0>        -0.2503 
     20 C16        17.9067   15.0074    3.6649 C.ar      1 <0>         0.0107 
     21 N5          8.7766   12.0287    1.2848 N.am      1 <0>        -0.3746 
     22 C17         7.7483   11.2640    0.8484 C.2       1 <0>         0.5496 
     23 O1          6.8551   10.8194    1.5720 O.2       1 <0>        -0.4985 
     24 C18         7.7308   10.9516   -0.6336 C.ar      1 <0>        -0.1716 
     25 C19         8.4309   11.7267   -1.5680 C.ar      1 <0>        -0.0665 
     26 C20         8.3172   11.4549   -2.9275 C.ar      1 <0>        -0.1427 
     27 C21         7.5069   10.4233   -3.4126 C.ar      1 <0>         0.1772 
     28 C22         6.8432    9.6038   -2.4783 C.ar      1 <0>        -0.1027 
     29 C23         6.9560    9.8836   -1.1076 C.ar      1 <0>        -0.0522 
     30 C24         5.9747    8.4271   -2.9423 C.3       1 <0>         0.4688 
     31 F1          5.3943    7.7792   -1.9295 F         1 <0>        -0.1721 
     32 F2          5.0063    8.8660   -3.7483 F         1 <0>        -0.1721 
     33 F3          6.7192    7.5494   -3.6165 F         1 <0>        -0.1721 
     34 N6          7.4299   10.1809   -4.7938 N.2       1 <0>        -0.4252 
     35 N7          7.0484   11.0772   -5.6575 N.2       1 <0>         0.1830 
     36 N8          6.4855   12.3583   -5.3468 N.pl3     1 <0>        -0.2537 
     37 C25         5.7311   12.6456   -4.1236 C.3       1 <0>        -0.0484 
     38 C26         6.1613   13.2090   -6.4807 C.3       1 <0>        -0.0484 
     39 H1          9.7798   15.0533    6.6846 H         1 <0>         0.0751 
     40 H2          9.4670   13.4181    7.2604 H         1 <0>         0.0751 
     41 H3         11.0825   13.8507    6.7815 H         1 <0>         0.0751 
     42 H4          7.6791   13.0563    5.6533 H         1 <0>         0.1384 
     43 H5          7.0704   12.1959    3.4813 H         1 <0>         0.1386 
     44 H6         11.0110   13.0599    2.0082 H         1 <0>         0.1520 
     45 H7         12.0036   14.8110    4.9631 H         1 <0>         0.3283 
     46 H8         14.6536   11.4942    1.8338 H         1 <0>         0.1677 
     47 H9         16.6624   12.8451    2.4629 H         1 <0>         0.1622 
     48 H10        15.4885   15.9683    5.8298 H         1 <0>         0.1412 
     49 H11        17.3879   17.2622    6.7071 H         1 <0>         0.1476 
     50 H12        19.6140   17.0617    5.5780 H         1 <0>         0.1613 
     51 H13        18.1426   14.3829    2.8183 H         1 <0>         0.1637 
     52 H14         9.4930   12.2323    0.6054 H         1 <0>         0.3014 
     53 H15         9.0463   12.5664   -1.2761 H         1 <0>         0.1501 
     54 H16         8.8316   12.0907   -3.6320 H         1 <0>         0.1549 
     55 H17         6.4219    9.2667   -0.3965 H         1 <0>         0.1572 
     56 H18         6.3543   13.1887   -3.4116 H         1 <0>         0.0769 
     57 H19         4.8631   13.2740   -4.3314 H         1 <0>         0.0769 
     58 H20         5.3483   11.7415   -3.6513 H         1 <0>         0.0769 
     59 H21         6.7890   12.9773   -7.3429 H         1 <0>         0.0769 
     60 H22         5.1198   13.0761   -6.7786 H         1 <0>         0.0769 
     61 H23         6.3209   14.2581   -6.2237 H         1 <0>         0.0769 
@<TRIPOS>BOND
     1    1    2 1    
     2    1   39 1    
     3    1   40 1    
     4    1   41 1    
     5    2    7 ar   
     6    2    3 ar   
     7    3    4 ar   
     8    3   42 1    
     9    4    5 ar   
    10    4   43 1    
    11    5    6 ar   
    12    5   21 1    
    13    6    7 ar   
    14    6   44 1    
    15    7    8 1    
    16    8    9 1    
    17    8   45 1    
    18    9   14 ar   
    19    9   10 ar   
    20   10   11 ar   
    21   11   12 ar   
    22   11   46 1    
    23   12   13 ar   
    24   12   47 1    
    25   13   14 ar   
    26   13   15 1    
    27   15   20 ar   
    28   15   16 ar   
    29   16   17 ar   
    30   16   48 1    
    31   17   18 ar   
    32   17   49 1    
    33   18   19 ar   
    34   18   50 1    
    35   19   20 ar   
    36   20   51 1    
    37   21   22 am   BACKBONE|DICT|INTERRES
    38   21   52 1    
    39   22   23 2    
    40   22   24 1    
    41   24   29 ar   
    42   24   25 ar   
    43   25   26 ar   
    44   25   53 1    
    45   26   27 ar   
    46   26   54 1    
    47   27   28 ar   
    48   27   34 1    
    49   28   29 ar   
    50   28   30 1    
    51   29   55 1    
    52   30   31 1    
    53   30   32 1    
    54   30   33 1    
    55   34   35 2    
    56   35   36 1    
    57   36   37 1    
    58   36   38 1    
    59   37   56 1    
    60   37   57 1    
    61   37   58 1    
    62   38   59 1    
    63   38   60 1    
    64   38   61 1    
@<TRIPOS>SUBSTRUCTURE
     1 <0>         1 GROUP             0       ****    0 ROOT    
@<TRIPOS>MOLECULE
CHEMBL230178
61   64    1
SMALL
USER_CHARGES


@<TRIPOS>ATOM
      1 C1          9.6827   13.9710    6.6484 C.3       1 <0>        -0.1233 
      2 C2          9.3532   13.7030    5.1878 C.ar      1 <0>        -0.1047 
      3 C3          8.0332   13.3674    4.8664 C.ar      1 <0>        -0.0965 
      4 C4          7.6721   13.0782    3.5544 C.ar      1 <0>        -0.1400 
      5 C5          8.6336   13.1232    2.5370 C.ar      1 <0>         0.0424 
      6 C6          9.9572   13.4281    2.8644 C.ar      1 <0>        -0.1520 
      7 C7         10.3327   13.7311    4.1772 C.ar      1 <0>         0.2270 
      8 N1         11.6528   14.1064    4.4831 N.pl3     1 <0>        -0.6031 
      9 C8         12.8858   13.8006    3.8932 C.ar      1 <0>         0.3650 
     10 N2         12.9709   12.8060    2.9736 N.ar      1 <0>        -0.3193 
     11 C9         14.2000   12.5540    2.4644 C.ar      1 <0>         0.0707 
     12 C10        15.3358   13.2539    2.8616 C.ar      1 <0>        -0.2669 
     13 C11        15.1715   14.2636    3.8231 C.ar      1 <0>         0.1615 
     14 N3         13.9356   14.5342    4.3388 N.ar      1 <0>        -0.3060 
     15 C12        16.3218   15.0541    4.3707 C.ar      1 <0>        -0.0927 
     16 C13        16.1923   15.8543    5.5230 C.ar      1 <0>        -0.0609 
     17 C14        17.2783   16.5823    6.0121 C.ar      1 <0>        -0.1817 
     18 C15        18.4888   16.5060    5.3267 C.ar      1 <0>        -0.0083 
     19 N4         18.6550   15.7541    4.2123 N.ar      1 <0>        -0.2504 
     20 C16        17.5895   15.0475    3.7609 C.ar      1 <0>         0.0107 
     21 N5          8.3488   12.8463    1.1895 N.am      1 <0>        -0.3775 
     22 C17         7.1937   13.0838    0.5249 C.2       1 <0>         0.5492 
     23 O1          6.2189   13.6419    1.0382 O.2       1 <0>        -0.4963 
     24 C18         7.1397   12.6540   -0.9302 C.ar      1 <0>        -0.1636 
     25 C19         8.2397   12.0843   -1.5844 C.ar      1 <0>        -0.0733 
     26 C20         8.1538   11.7103   -2.9206 C.ar      1 <0>        -0.1430 
     27 C21         6.9804   11.8870   -3.6772 C.ar      1 <0>         0.2496 
     28 C22         5.8680   12.4605   -3.0208 C.ar      1 <0>        -0.0751 
     29 C23         5.9619   12.8318   -1.6692 C.ar      1 <0>        -0.0606 
     30 C24         4.5465   12.7000   -3.7701 C.3       1 <0>         0.4711 
     31 F1          3.6040   13.2539   -3.0012 F         1 <0>        -0.1732 
     32 F2          4.7482   13.5111   -4.8090 F         1 <0>        -0.1732 
     33 F3          4.0659   11.5428   -4.2266 F         1 <0>        -0.1732 
     34 N6          6.8625   11.5148   -5.0351 N.2       1 <0>        -0.5190 
     35 N7          7.8936   11.0141   -5.5852 N.2       1 <0>         0.0970 
     36 N8          7.7592   10.6345   -6.9447 N.pl3     1 <0>        -0.1523 
     37 C25         6.5651   10.9096   -7.7458 C.3       1 <0>        -0.0499 
     38 C26         8.9686   10.2622   -7.6622 C.3       1 <0>        -0.0499 
     39 H1          9.6349   15.0327    6.8826 H         1 <0>         0.0749 
     40 H2          8.9683   13.4433    7.2781 H         1 <0>         0.0749 
     41 H3         10.6686   13.5896    6.9148 H         1 <0>         0.0749 
     42 H4          7.2773   13.3220    5.6364 H         1 <0>         0.1381 
     43 H5          6.6473   12.8066    3.3444 H         1 <0>         0.1388 
     44 H6         10.6963   13.4533    2.0751 H         1 <0>         0.1520 
     45 H7         11.7387   14.7635    5.2403 H         1 <0>         0.3284 
     46 H8         14.2606   11.7688    1.7248 H         1 <0>         0.1674 
     47 H9         16.2978   13.0007    2.4441 H         1 <0>         0.1620 
     48 H10        15.2522   15.9078    6.0555 H         1 <0>         0.1412 
     49 H11        17.1817   17.1950    6.8936 H         1 <0>         0.1475 
     50 H12        19.3563   17.0556    5.6631 H         1 <0>         0.1612 
     51 H13        17.7892   14.4764    2.8662 H         1 <0>         0.1637 
     52 H14         9.1165   12.4731    0.6535 H         1 <0>         0.3011 
     53 H15         9.1859   11.9289   -1.0872 H         1 <0>         0.1479 
     54 H16         9.0455   11.3045   -3.3752 H         1 <0>         0.1541 
     55 H17         5.1012   13.2708   -1.1831 H         1 <0>         0.1573 
     56 H18         6.6620   11.8764   -8.2382 H         1 <0>         0.0761 
     57 H19         6.4331   10.1465   -8.5109 H         1 <0>         0.0761 
     58 H20         5.6568   10.9303   -7.1435 H         1 <0>         0.0761 
     59 H21         9.8127   10.1302   -6.9831 H         1 <0>         0.0761 
     60 H22         8.8174    9.3224   -8.1933 H         1 <0>         0.0761 
     61 H23         9.2309   11.0327   -8.3860 H         1 <0>         0.0761 
@<TRIPOS>BOND
     1    1    2 1    
     2    1   39 1    
     3    1   40 1    
     4    1   41 1    
     5    2    7 ar   
     6    2    3 ar   
     7    3    4 ar   
     8    3   42 1    
     9    4    5 ar   
    10    4   43 1    
    11    5    6 ar   
    12    5   21 1    
    13    6    7 ar   
    14    6   44 1    
    15    7    8 1    
    16    8    9 1    
    17    8   45 1    
    18    9   14 ar   
    19    9   10 ar   
    20   10   11 ar   
    21   11   12 ar   
    22   11   46 1    
    23   12   13 ar   
    24   12   47 1    
    25   13   14 ar   
    26   13   15 1    
    27   15   20 ar   
    28   15   16 ar   
    29   16   17 ar   
    30   16   48 1    
    31   17   18 ar   
    32   17   49 1    
    33   18   19 ar   
    34   18   50 1    
    35   19   20 ar   
    36   20   51 1    
    37   21   22 am   BACKBONE|DICT|INTERRES
    38   21   52 1    
    39   22   23 2    
    40   22   24 1    
    41   24   29 ar   
    42   24   25 ar   
    43   25   26 ar   
    44   25   53 1    
    45   26   27 ar   
    46   26   54 1    
    47   27   28 ar   
    48   27   34 1    
    49   28   29 ar   
    50   28   30 1    
    51   29   55 1    
    52   30   31 1    
    53   30   32 1    
    54   30   33 1    
    55   34   35 2    
    56   35   36 1    
    57   36   37 1    
    58   36   38 1    
    59   37   56 1    
    60   37   57 1    
    61   37   58 1    
    62   38   59 1    
    63   38   60 1    
    64   38   61 1    
@<TRIPOS>SUBSTRUCTURE
     1 <0>         1 GROUP             0       ****    0 ROOT    
@<TRIPOS>MOLECULE
CHEMBL454119
47   49    1
SMALL
USER_CHARGES


@<TRIPOS>ATOM
      1 C1          4.4997   10.4296    0.2815 C.3       1 <0>        -0.1718 
      2 C2          5.2938   11.0408    1.4442 C.3       1 <0>        -0.1272 
      3 C3          6.7616   11.3230    1.0811 C.3       1 <0>        -0.1426 
      4 C4          7.5571   11.9274    2.2468 C.3       1 <0>         0.0258 
      5 N1          8.9621   12.1457    1.9233 N.pl3     1 <0>        -0.5632 
      6 C5          9.8261   12.7221    2.8648 C.ar      1 <0>         0.4406 
      7 C6         11.2105   12.6367    2.6710 C.ar      1 <0>        -0.1786 
      8 C7         12.1211   12.0659    1.7444 C.ar      1 <0>        -0.1014 
      9 N2         13.3634   12.2600    2.1135 N.2       1 <0>        -0.2827 
     10 N3         13.3344   12.9232    3.2880 N.pl3     1 <0>         0.0149 
     11 C8         12.0298   13.2125    3.6646 C.ar      1 <0>         0.3403 
     12 N4         11.5819   13.8198    4.7725 N.ar      1 <0>        -0.4043 
     13 C9         10.2273   13.7857    4.8932 C.ar      1 <0>         0.3622 
     14 N5          9.3349   13.3064    3.9898 N.ar      1 <0>        -0.4928 
     15 S1          9.5900   14.2536    6.4653 S.3       1 <0>        -0.2206 
     16 C10         7.8456   13.7473    6.5403 C.3       1 <0>        -0.0656 
     17 C11        14.5987   13.2105    3.9675 C.3       1 <0>        -0.0014 
     18 C12        15.1751   14.5840    3.5664 C.3       1 <0>         0.0617 
     19 C13        16.5666   14.8536    4.1423 C.ar      1 <0>        -0.1177 
     20 C14        16.7187   15.4607    5.3973 C.ar      1 <0>        -0.0826 
     21 C15        17.9868   15.7318    5.9004 C.ar      1 <0>        -0.1694 
     22 C16        19.1101   15.3856    5.1573 C.ar      1 <0>         0.2229 
     23 C17        18.9706   14.7593    3.9220 C.ar      1 <0>        -0.1694 
     24 C18        17.7024   14.4774    3.4227 C.ar      1 <0>        -0.0826 
     25 F1         20.3428   15.6524    5.6430 F         1 <0>        -0.2171 
     26 Cl1        14.0316   15.8537    4.0645 Cl        1 <0>        -0.2097 
     27 H1          3.4648   10.2445    0.5712 H         1 <0>         0.0619 
     28 H2          4.4872   11.0945   -0.5831 H         1 <0>         0.0619 
     29 H3          4.9293    9.4778   -0.0337 H         1 <0>         0.0619 
     30 H4          4.8093   11.9650    1.7630 H         1 <0>         0.0673 
     31 H5          5.2524   10.3640    2.2996 H         1 <0>         0.0673 
     32 H6          7.2419   10.3970    0.7589 H         1 <0>         0.0733 
     33 H7          6.8080   11.9971    0.2241 H         1 <0>         0.0733 
     34 H8          7.0950   12.8543    2.5911 H         1 <0>         0.0800 
     35 H9          7.4929   11.2695    3.1161 H         1 <0>         0.0800 
     36 H10         9.3859   11.5136    1.2602 H         1 <0>         0.2939 
     37 H11        11.8907   11.4882    0.8645 H         1 <0>         0.1935 
     38 H12         7.7509   12.6734    6.3763 H         1 <0>         0.0984 
     39 H13         7.4255   13.9735    7.5207 H         1 <0>         0.0984 
     40 H14         7.2592   14.2688    5.7843 H         1 <0>         0.0984 
     41 H15        14.4239   13.1669    5.0399 H         1 <0>         0.1116 
     42 H16        15.3061   12.4148    3.7262 H         1 <0>         0.1116 
     43 H17        15.2449   14.6430    2.4788 H         1 <0>         0.1128 
     44 H18        15.8588   15.7347    5.9914 H         1 <0>         0.1440 
     45 H19        18.0972   16.2064    6.8634 H         1 <0>         0.1494 
     46 H20        19.8493   14.4903    3.3554 H         1 <0>         0.1494 
     47 H21        17.6069   13.9729    2.4729 H         1 <0>         0.1440 
@<TRIPOS>BOND
     1    1    2 1    
     2    1   27 1    
     3    1   28 1    
     4    1   29 1    
     5    2    3 1    
     6    2   30 1    
     7    2   31 1    
     8    3    4 1    
     9    3   32 1    
    10    3   33 1    
    11    4    5 1    
    12    4   34 1    
    13    4   35 1    
    14    5    6 1    
    15    5   36 1    
    16    6   14 ar   
    17    6    7 ar   
    18    7   11 ar   
    19    7    8 ar   
    20    8    9 ar   
    21    8   37 1    
    22    9   10 ar   
    23   10   11 ar   
    24   10   17 1    
    25   11   12 ar   
    26   12   13 ar   
    27   13   14 ar   
    28   13   15 1    
    29   15   16 1    
    30   16   38 1    
    31   16   39 1    
    32   16   40 1    
    33   17   18 1    
    34   17   41 1    
    35   17   42 1    
    36   18   19 1    
    37   18   26 1    
    38   18   43 1    
    39   19   24 ar   
    40   19   20 ar   
    41   20   21 ar   
    42   20   44 1    
    43   21   22 ar   
    44   21   45 1    
    45   22   23 ar   
    46   22   25 1    
    47   23   24 ar   
    48   23   46 1    
    49   24   47 1    
@<TRIPOS>SUBSTRUCTURE
     1 <0>         1 GROUP             0       ****    0 ROOT    
@<TRIPOS>MOLECULE
CHEMBL454119
47   49    1
SMALL
USER_CHARGES


@<TRIPOS>ATOM
      1 C1          3.9758   10.4203    0.6384 C.3       1 <0>        -0.1719 
      2 C2          4.7804   10.9846    1.8177 C.3       1 <0>        -0.1272 
      3 C3          6.1953   11.4327    1.4150 C.3       1 <0>        -0.1426 
      4 C4          7.0004   11.9942    2.5953 C.3       1 <0>         0.0259 
      5 N1          8.3696   12.3415    2.2347 N.pl3     1 <0>        -0.5628 
      6 C5          9.2312   12.8985    3.1905 C.ar      1 <0>         0.4404 
      7 C6         10.6104   12.9074    2.9496 C.ar      1 <0>        -0.1788 
      8 C7         11.5117   12.4550    1.9533 C.ar      1 <0>        -0.1013 
      9 N2         12.7426   12.6533    2.3329 N.2       1 <0>        -0.2828 
     10 N3         12.7438   13.2826    3.5274 N.pl3     1 <0>         0.0148 
     11 C8         11.4358   13.4537    3.9645 C.ar      1 <0>         0.3403 
     12 N4         10.9919   13.9119    5.1394 N.ar      1 <0>        -0.4042 
     13 C9          9.6420   13.8213    5.2823 C.ar      1 <0>         0.3620 
     14 N5          8.7478   13.3718    4.3673 N.ar      1 <0>        -0.4925 
     15 S1          9.0066   14.2479    6.8642 S.3       1 <0>        -0.2205 
     16 C10         7.2217   13.9105    6.8647 C.3       1 <0>        -0.0658 
     17 C11        14.0211   13.5380    4.2301 C.3       1 <0>        -0.0011 
     18 C12        15.1586   14.1288    3.3277 C.3       1 <0>         0.0610 
     19 C13        16.4031   14.6540    4.0647 C.ar      1 <0>        -0.1175 
     20 C14        17.7022   14.2972    3.6659 C.ar      1 <0>        -0.0827 
     21 C15        18.8030   14.6518    4.4315 C.ar      1 <0>        -0.1695 
     22 C16        18.6245   15.3621    5.6083 C.ar      1 <0>         0.2227 
     23 C17        17.3599   15.8256    5.9671 C.ar      1 <0>        -0.1695 
     24 C18        16.2523   15.4715    5.1952 C.ar      1 <0>        -0.0827 
     25 F1         19.6847   15.5460    6.4237 F         1 <0>        -0.2172 
     26 Cl1        15.6200   12.9214    2.0679 Cl        1 <0>        -0.2080 
     27 H1          2.9876   10.0940    0.9623 H         1 <0>         0.0619 
     28 H2          3.8386   11.1685   -0.1441 H         1 <0>         0.0619 
     29 H3          4.4772    9.5602    0.1943 H         1 <0>         0.0619 
     30 H4          4.2379   11.8226    2.2554 H         1 <0>         0.0672 
     31 H5          4.8474   10.2256    2.5996 H         1 <0>         0.0672 
     32 H6          6.7338   10.5875    0.9844 H         1 <0>         0.0735 
     33 H7          6.1375   12.1825    0.6249 H         1 <0>         0.0735 
     34 H8          6.4895   12.8499    3.0402 H         1 <0>         0.0798 
     35 H9          7.0267   11.2604    3.4036 H         1 <0>         0.0798 
     36 H10         8.8133   11.7742    1.5270 H         1 <0>         0.2938 
     37 H11        11.2903   11.9560    1.0196 H         1 <0>         0.1934 
     38 H12         7.0352   12.8391    6.7811 H         1 <0>         0.0985 
     39 H13         6.7732   14.2605    7.7934 H         1 <0>         0.0985 
     40 H14         6.7298   14.4168    6.0345 H         1 <0>         0.0985 
     41 H15        13.7918   14.2176    5.0483 H         1 <0>         0.1110 
     42 H16        14.3437   12.5994    4.6839 H         1 <0>         0.1110 
     43 H17        14.7483   15.0153    2.8638 H         1 <0>         0.1136 
     44 H18        17.8962   13.6960    2.7925 H         1 <0>         0.1440 
     45 H19        19.7825   14.3002    4.1418 H         1 <0>         0.1493 
     46 H20        17.2308   16.4097    6.8649 H         1 <0>         0.1493 
     47 H21        15.2757   15.8036    5.5155 H         1 <0>         0.1440 
@<TRIPOS>BOND
     1    1    2 1    
     2    1   27 1    
     3    1   28 1    
     4    1   29 1    
     5    2    3 1    
     6    2   30 1    
     7    2   31 1    
     8    3    4 1    
     9    3   32 1    
    10    3   33 1    
    11    4    5 1    
    12    4   34 1    
    13    4   35 1    
    14    5    6 1    
    15    5   36 1    
    16    6   14 ar   
    17    6    7 ar   
    18    7   11 ar   
    19    7    8 ar   
    20    8    9 ar   
    21    8   37 1    
    22    9   10 ar   
    23   10   11 ar   
    24   10   17 1    
    25   11   12 ar   
    26   12   13 ar   
    27   13   14 ar   
    28   13   15 1    
    29   15   16 1    
    30   16   38 1    
    31   16   39 1    
    32   16   40 1    
    33   17   18 1    
    34   17   41 1    
    35   17   42 1    
    36   18   19 1    
    37   18   26 1    
    38   18   43 1    
    39   19   24 ar   
    40   19   20 ar   
    41   20   21 ar   
    42   20   44 1    
    43   21   22 ar   
    44   21   45 1    
    45   22   23 ar   
    46   22   25 1    
    47   23   24 ar   
    48   23   46 1    
    49   24   47 1    
@<TRIPOS>SUBSTRUCTURE
     1 <0>         1 GROUP             0       ****    0 ROOT    
@<TRIPOS>MOLECULE
CHEMBL482968
54   57    1
SMALL
USER_CHARGES


@<TRIPOS>ATOM
      1 C1          7.8108   14.3197    7.2617 C.3       1 <0>        -0.1798 
      2 C2          7.2580   14.1793    5.8707 C.ar      1 <0>         0.0615 
      3 C3          7.4346   13.1195    4.9769 C.ar      1 <0>        -0.3456 
      4 C4          6.7305   13.4500    3.8375 C.ar      1 <0>         0.0950 
      5 N1          6.1764   14.6646    4.1293 N.pl3     1 <0>        -0.0350 
      6 N2          6.4932   15.1169    5.3494 N.2       1 <0>        -0.1904 
      7 H1          5.5981   15.1943    3.4949 H         1 <0>         0.2892 
      8 N3          6.5631   12.8203    2.6329 N.pl3     1 <0>        -0.5383 
      9 C5          7.6032   12.2271    1.9028 C.ar      1 <0>         0.4278 
     10 C6          7.2844   11.4057    0.8205 C.ar      1 <0>        -0.2606 
     11 C7          8.3393   10.8104    0.1100 C.ar      1 <0>         0.3884 
     12 N4          9.6302   11.0493    0.4765 N.ar      1 <0>        -0.3458 
     13 C8          9.8620   11.8569    1.5405 C.ar      1 <0>         0.2999 
     14 N5          8.8912   12.4612    2.2668 N.ar      1 <0>        -0.4178 
     15 C9         11.2730   12.1256    1.8894 C.2       1 <0>        -0.2176 
     16 C10        11.7001   12.9369    2.8831 C.2       1 <0>         0.0307 
     17 C11        13.0997   13.2887    3.2132 C.ar      1 <0>        -0.1242 
     18 C12        14.1964   12.6585    2.6054 C.ar      1 <0>        -0.1006 
     19 C13        15.4887   13.1255    2.8346 C.ar      1 <0>        -0.1315 
     20 C14        15.6900   14.2253    3.6640 C.ar      1 <0>        -0.1024 
     21 C15        14.6151   14.8327    4.3074 C.ar      1 <0>        -0.1315 
     22 C16        13.3244   14.3606    4.0843 C.ar      1 <0>        -0.1006 
     23 N6          8.1329    9.9043   -0.9377 N.pl3     1 <0>        -0.4395 
     24 C17         9.2443    9.2669   -1.6773 C.3       1 <0>        -0.0758 
     25 C18         8.9975    7.7908   -2.0310 C.3       1 <0>         0.0573 
     26 N7          7.7148    7.6981   -2.8709 N.4       1 <0>        -0.4425 
     27 C19         6.5369    8.2580   -2.0519 C.3       1 <0>         0.0573 
     28 C20         6.8400    9.7131   -1.6289 C.3       1 <0>        -0.0758 
     29 C21         7.4451    6.2350   -3.2824 C.3       1 <0>        -0.0098 
     30 H2          8.5765   15.0913    7.3230 H         1 <0>         0.0773 
     31 H3          7.0282   14.5563    7.9811 H         1 <0>         0.0773 
     32 H4          8.2651   13.3839    7.5865 H         1 <0>         0.0773 
     33 H5          8.0090   12.2171    5.1356 H         1 <0>         0.1911 
     34 H6          5.6414   12.6442    2.2632 H         1 <0>         0.3385 
     35 H7          6.2504   11.2261    0.5825 H         1 <0>         0.1692 
     36 H8         12.0027   11.6273    1.2693 H         1 <0>         0.1492 
     37 H9         10.9504   13.4024    3.5082 H         1 <0>         0.1438 
     38 H10        14.0567   11.8413    1.9165 H         1 <0>         0.1315 
     39 H11        16.3315   12.6554    2.3491 H         1 <0>         0.1398 
     40 H12        16.6921   14.5953    3.8287 H         1 <0>         0.1399 
     41 H13        14.7804   15.6730    4.9662 H         1 <0>         0.1398 
     42 H14        12.4956   14.8624    4.5627 H         1 <0>         0.1315 
     43 H15         9.3752    9.8536   -2.5882 H         1 <0>         0.1109 
     44 H16        10.1864    9.3336   -1.1371 H         1 <0>         0.1109 
     45 H17         9.8069    7.4123   -2.6556 H         1 <0>         0.1306 
     46 H18         8.8863    7.1637   -1.1438 H         1 <0>         0.1306 
     47 H19         5.6721    8.2297   -2.7169 H         1 <0>         0.1306 
     48 H20         6.3741    7.6021   -1.1939 H         1 <0>         0.1306 
     49 H21         5.9910   10.1093   -1.0791 H         1 <0>         0.1109 
     50 H22         6.9238   10.3269   -2.5267 H         1 <0>         0.1109 
     51 H23         7.3282    5.6361   -2.3767 H         1 <0>         0.1255 
     52 H24         6.5372    6.2256   -3.8865 H         1 <0>         0.1255 
     53 H25         8.2994    5.8984   -3.8723 H         1 <0>         0.1255 
     54 H26         7.8350    8.2668   -3.6997 H         1 <0>         0.3097 
@<TRIPOS>BOND
     1    1    2 1    
     2    1   30 1    
     3    1   31 1    
     4    1   32 1    
     5    2    3 ar   
     6    2    6 ar   
     7    3   33 1    
     8    3    4 ar   
     9    4    8 1    
    10    4    5 ar   
    11    5    7 1    
    12    5    6 ar   
    13    8    9 1    
    14    8   34 1    
    15    9   14 ar   
    16    9   10 ar   
    17   10   11 ar   
    18   10   35 1    
    19   11   12 ar   
    20   11   23 1    
    21   12   13 ar   
    22   13   14 ar   
    23   13   15 1    
    24   15   16 2    
    25   15   36 1    
    26   16   17 1    
    27   16   37 1    
    28   17   22 ar   
    29   17   18 ar   
    30   18   19 ar   
    31   18   38 1    
    32   19   20 ar   
    33   19   39 1    
    34   20   21 ar   
    35   20   40 1    
    36   21   22 ar   
    37   21   41 1    
    38   22   42 1    
    39   23   28 1    
    40   23   24 1    
    41   24   25 1    
    42   24   43 1    
    43   24   44 1    
    44   25   26 1    
    45   25   45 1    
    46   25   46 1    
    47   26   27 1    
    48   26   29 1    
    49   26   54 1    
    50   27   28 1    
    51   27   47 1    
    52   27   48 1    
    53   28   49 1    
    54   28   50 1    
    55   29   51 1    
    56   29   52 1    
    57   29   53 1    
@<TRIPOS>SUBSTRUCTURE
     1 <0>         1 GROUP             0       ****    0 ROOT    
@<TRIPOS>MOLECULE
CHEMBL482968
55   58    1
SMALL
USER_CHARGES


@<TRIPOS>ATOM
      1 C1          6.3209   10.0182   -2.3683 C.3       1 <0>        -0.1903 
      2 C2          7.2942   10.6513   -1.4037 C.ar      1 <0>         0.0272 
      3 C3          8.3668   10.0623   -0.7222 C.ar      1 <0>        -0.2865 
      4 C4          8.9481   11.0543    0.0430 C.ar      1 <0>        -0.1006 
      5 N1          8.1983   12.1635   -0.2552 N.pl3     1 <0>        -0.1007 
      6 N2          7.2021   11.9303   -1.1149 N.2       1 <0>        -0.0386 
      7 H1          8.3748   13.0860    0.1101 H         1 <0>         0.2921 
      8 N3         10.0461   11.0537    0.8447 N.pl3     1 <0>        -0.1188 
      9 C5         10.2415   11.9018    1.9578 C.2       1 <0>         0.3181 
     10 C6          9.1924   12.2597    2.8001 C.2       1 <0>        -0.4150 
     11 C7          9.4475   13.0578    3.9257 C.2       1 <0>         0.5548 
     12 N4         10.7109   13.5592    4.1342 N.2       1 <0>        -0.3056 
     13 C8         11.7109   13.1647    3.2873 C.3       1 <0>         0.3475 
     14 N5         11.4752   12.3424    2.2487 N.pl3     1 <0>        -0.2566 
     15 C9         13.1216   13.5760    3.4594 C.2       1 <0>        -0.3028 
     16 C10        13.6259   14.4690    4.3388 C.2       1 <0>         0.1114 
     17 C11        15.0573   14.8529    4.4632 C.ar      1 <0>        -0.1698 
     18 C12        15.9993   14.5834    3.4572 C.ar      1 <0>        -0.0762 
     19 C13        17.3409   14.9215    3.6347 C.ar      1 <0>        -0.1266 
     20 C14        17.7510   15.5601    4.7999 C.ar      1 <0>        -0.0571 
     21 C15        16.8323   15.8427    5.8038 C.ar      1 <0>        -0.1266 
     22 C16        15.5020   15.4648    5.6430 C.ar      1 <0>        -0.0762 
     23 N6          8.4277   13.3632    4.8436 N.pl3     1 <0>        -0.4786 
     24 C17         8.7045   13.9973    6.1521 C.3       1 <0>        -0.0683 
     25 C18         7.5204   14.7616    6.7901 C.3       1 <0>         0.0613 
     26 N7          6.2834   13.8550    6.8645 N.4       1 <0>        -0.4494 
     27 C19         5.9235   13.3708    5.4554 C.3       1 <0>         0.0613 
     28 C20         7.1310   12.6347    4.8464 C.3       1 <0>        -0.0683 
     29 C21         5.0922   14.5847    7.5217 C.3       1 <0>        -0.0053 
     30 H2          5.2908   10.1074   -2.0216 H         1 <0>         0.0922 
     31 H3          6.3738   10.4832   -3.3528 H         1 <0>         0.0922 
     32 H4          6.5222    8.9554   -2.5073 H         1 <0>         0.0922 
     33 H5          8.6818    9.0302   -0.7798 H         1 <0>         0.1876 
     34 H6         10.8163   10.4575    0.5767 H         1 <0>         0.2451 
     35 H7          8.2251   11.8439    2.5791 H         1 <0>         0.2251 
     36 H8         13.8193   13.0899    2.7951 H         1 <0>         0.1981 
     37 H9         12.9435   14.9683    5.0110 H         1 <0>         0.1096 
     38 H10        15.7122   14.1088    2.5313 H         1 <0>         0.1340 
     39 H11        18.0669   14.6970    2.8671 H         1 <0>         0.1589 
     40 H12        18.7897   15.8293    4.9277 H         1 <0>         0.1609 
     41 H13        17.1523   16.3268    6.7150 H         1 <0>         0.1589 
     42 H14        14.8324   15.6570    6.4640 H         1 <0>         0.1340 
     43 H15         8.9408   13.1631    6.8157 H         1 <0>         0.1104 
     44 H16         9.5855   14.6394    6.1188 H         1 <0>         0.1104 
     45 H17         7.7497   15.0240    7.8233 H         1 <0>         0.1448 
     46 H18         7.2309   15.6464    6.2240 H         1 <0>         0.1448 
     47 H19         5.0881   12.6790    5.5872 H         1 <0>         0.1448 
     48 H20         5.6099   14.2321    4.8619 H         1 <0>         0.1448 
     49 H21         6.8153   12.2778    3.8699 H         1 <0>         0.1104 
     50 H22         7.3160   11.7527    5.4645 H         1 <0>         0.1104 
     51 H23         4.8406   15.4656    6.9284 H         1 <0>         0.1332 
     52 H24         4.2635   13.8749    7.5625 H         1 <0>         0.1332 
     53 H25         5.3996   14.8491    8.5356 H         1 <0>         0.1332 
     54 H26        12.2477   12.0492    1.6683 H         1 <0>         0.3227 
     55 H27         6.4908   13.0548    7.4693 H         1 <0>         0.3122 
@<TRIPOS>BOND
     1    1    2 1    
     2    1   30 1    
     3    1   31 1    
     4    1   32 1    
     5    2    3 ar   
     6    2    6 ar   
     7    3   33 1    
     8    3    4 ar   
     9    4    8 1    
    10    4    5 ar   
    11    5    7 1    
    12    5    6 ar   
    13    8    9 1    
    14    8   34 1    
    15    9   14 1    
    16    9   10 2    
    17   10   11 1    
    18   10   35 1    
    19   11   12 2    
    20   11   23 1    
    21   12   13 1    
    22   13   14 1    
    23   13   15 1    
    24   14   54 1    
    25   15   16 2    
    26   15   36 1    
    27   16   17 1    
    28   16   37 1    
    29   17   22 ar   
    30   17   18 ar   
    31   18   19 ar   
    32   18   38 1    
    33   19   20 ar   
    34   19   39 1    
    35   20   21 ar   
    36   20   40 1    
    37   21   22 ar   
    38   21   41 1    
    39   22   42 1    
    40   23   28 1    
    41   23   24 1    
    42   24   25 1    
    43   24   43 1    
    44   24   44 1    
    45   25   26 1    
    46   25   45 1    
    47   25   46 1    
    48   26   27 1    
    49   26   29 1    
    50   26   55 1    
    51   27   28 1    
    52   27   47 1    
    53   27   48 1    
    54   28   49 1    
    55   28   50 1    
    56   29   51 1    
    57   29   52 1    
    58   29   53 1    
@<TRIPOS>SUBSTRUCTURE
     1 <0>         1 GROUP             0       ****    0 ROOT    
@<TRIPOS>MOLECULE
CHEMBL482968
55   58    1
SMALL
USER_CHARGES


@<TRIPOS>ATOM
      1 C1         15.9928   13.9389    3.4361 C.3       1 <0>        -0.2050 
      2 C2         14.5100   13.6631    3.4327 C.ar      1 <0>         0.0273 
      3 C3         13.4308   14.2623    4.0600 C.ar      1 <0>        -0.3375 
      4 C4         12.2796   13.5682    3.6624 C.ar      1 <0>        -0.0152 
      5 N1         12.6079   12.5928    2.8391 N.2       1 <0>        -0.2005 
      6 N2         13.9336   12.6540    2.7102 N.pl3     1 <0>         0.0079 
      7 H1         14.4310   11.9955    2.1286 H         1 <0>         0.3009 
      8 N3         10.9953   13.8179    4.0554 N.pl3     1 <0>        -0.0958 
      9 C5          9.8019   13.1834    3.5879 C.2       1 <0>         0.3151 
     10 C6          8.6137   13.2939    4.3147 C.2       1 <0>        -0.4192 
     11 C7          7.4682   12.6013    3.8704 C.2       1 <0>         0.5508 
     12 N4          7.5146   11.8664    2.7205 N.2       1 <0>        -0.3155 
     13 C8          8.6811   11.8137    2.0288 C.3       1 <0>         0.3486 
     14 N5          9.7840   12.4446    2.4608 N.pl3     1 <0>        -0.2551 
     15 C9          8.8060   11.0124    0.8004 C.2       1 <0>        -0.3011 
     16 C10         7.8990   10.1185    0.3484 C.2       1 <0>         0.1082 
     17 C11         8.0312    9.3148   -0.8831 C.ar      1 <0>        -0.1684 
     18 C12         8.7740    9.7614   -1.9861 C.ar      1 <0>        -0.0770 
     19 C13         8.9307    8.9499   -3.1072 C.ar      1 <0>        -0.1272 
     20 C14         8.3459    7.6867   -3.1289 C.ar      1 <0>        -0.0594 
     21 C15         7.5986    7.2341   -2.0413 C.ar      1 <0>        -0.1272 
     22 C16         7.4415    8.0482   -0.9218 C.ar      1 <0>        -0.0770 
     23 N6          6.2690   12.5737    4.5947 N.pl3     1 <0>        -0.4763 
     24 C17         5.0331   11.9266    4.0818 C.3       1 <0>        -0.0680 
     25 C18         4.0856   11.3229    5.1472 C.3       1 <0>         0.0610 
     26 N7          3.7978   12.3828    6.2247 N.4       1 <0>        -0.4490 
     27 C19         5.1411   12.7881    6.8478 C.3       1 <0>         0.0610 
     28 C20         6.0102   13.4411    5.7639 C.3       1 <0>        -0.0680 
     29 C21         2.8739   11.8173    7.3256 C.3       1 <0>        -0.0056 
     30 H2         16.3275   14.3419    2.4837 H         1 <0>         0.1004 
     31 H3         16.2651   14.6766    4.1892 H         1 <0>         0.1004 
     32 H4         16.5826   13.0425    3.6316 H         1 <0>         0.1004 
     33 H5         13.4770   15.1065    4.7338 H         1 <0>         0.1883 
     34 H6         10.8808   14.4462    4.8345 H         1 <0>         0.2538 
     35 H7          8.6197   13.8666    5.2250 H         1 <0>         0.2230 
     36 H8          9.7176   11.1466    0.2336 H         1 <0>         0.1961 
     37 H9          6.9857    9.9678    0.9131 H         1 <0>         0.1118 
     38 H10         9.2262   10.7422   -1.9951 H         1 <0>         0.1342 
     39 H11         9.4937    9.3078   -3.9562 H         1 <0>         0.1580 
     40 H12         8.4647    7.0555   -3.9980 H         1 <0>         0.1597 
     41 H13         7.1463    6.2512   -2.0634 H         1 <0>         0.1580 
     42 H14         6.8652    7.6828   -0.0800 H         1 <0>         0.1342 
     43 H15         4.5001   12.7374    3.5827 H         1 <0>         0.1097 
     44 H16         5.2361   11.1735    3.3193 H         1 <0>         0.1097 
     45 H17         3.1183   11.0782    4.7049 H         1 <0>         0.1441 
     46 H18         4.5016   10.4389    5.6376 H         1 <0>         0.1441 
     47 H19         4.9294   13.4953    7.6522 H         1 <0>         0.1441 
     48 H20         5.6058   11.8909    7.2638 H         1 <0>         0.1441 
     49 H21         6.9145   13.7976    6.2503 H         1 <0>         0.1097 
     50 H22         5.4943   14.3227    5.3783 H         1 <0>         0.1097 
     51 H23         3.4173   11.0386    7.8641 H         1 <0>         0.1328 
     52 H24         2.6123   12.6364    7.9962 H         1 <0>         0.1328 
     53 H25         1.9818   11.4007    6.8512 H         1 <0>         0.1328 
     54 H26        10.6465   12.3365    1.9456 H         1 <0>         0.3243 
     55 H27         3.3575   13.1926    5.8089 H         1 <0>         0.3113 
@<TRIPOS>BOND
     1    1    2 1    
     2    1   30 1    
     3    1   31 1    
     4    1   32 1    
     5    2    6 ar   
     6    2    3 ar   
     7    3    4 ar   
     8    3   33 1    
     9    4    5 ar   
    10    4    8 1    
    11    5    6 ar   
    12    6    7 1    
    13    8    9 1    
    14    8   34 1    
    15    9   14 1    
    16    9   10 2    
    17   10   11 1    
    18   10   35 1    
    19   11   12 2    
    20   11   23 1    
    21   12   13 1    
    22   13   14 1    
    23   13   15 1    
    24   14   54 1    
    25   15   16 2    
    26   15   36 1    
    27   16   17 1    
    28   16   37 1    
    29   17   22 ar   
    30   17   18 ar   
    31   18   19 ar   
    32   18   38 1    
    33   19   20 ar   
    34   19   39 1    
    35   20   21 ar   
    36   20   40 1    
    37   21   22 ar   
    38   21   41 1    
    39   22   42 1    
    40   23   28 1    
    41   23   24 1    
    42   24   25 1    
    43   24   43 1    
    44   24   44 1    
    45   25   26 1    
    46   25   45 1    
    47   25   46 1    
    48   26   27 1    
    49   26   29 1    
    50   26   55 1    
    51   27   28 1    
    52   27   47 1    
    53   27   48 1    
    54   28   49 1    
    55   28   50 1    
    56   29   51 1    
    57   29   52 1    
    58   29   53 1    
@<TRIPOS>SUBSTRUCTURE
     1 <0>         1 GROUP             0       ****    0 ROOT    
@<TRIPOS>MOLECULE
CHEMBL482968
54   57    1
SMALL
USER_CHARGES


@<TRIPOS>ATOM
      1 C1          8.5475   14.4318    7.0529 C.3       1 <0>        -0.1918 
      2 C2          7.7269   13.6353    6.0839 C.ar      1 <0>         0.0380 
      3 C3          7.7799   13.4850    4.7191 C.ar      1 <0>        -0.3476 
      4 C4          6.8685   12.4688    4.3944 C.ar      1 <0>         0.1960 
      5 N1          6.1776   12.1061    5.4518 N.2       1 <0>        -0.2551 
      6 N2          6.7168   12.7940    6.4644 N.pl3     1 <0>        -0.0554 
      7 H1          6.4317   12.6537    7.4379 H         1 <0>         0.2873 
      8 N3          6.6606   11.8533    3.1852 N.pl3     1 <0>        -0.5249 
      9 C5          7.6591   11.5555    2.2426 C.ar      1 <0>         0.3871 
     10 C6          7.3142   10.8627    1.0815 C.ar      1 <0>        -0.2486 
     11 C7          8.3420   10.5235    0.1854 C.ar      1 <0>         0.3704 
     12 N4          9.6317   10.8826    0.4541 N.ar      1 <0>        -0.3520 
     13 C8          9.8899   11.5524    1.5995 C.ar      1 <0>         0.2598 
     14 N5          8.9464   11.9036    2.4997 N.ar      1 <0>        -0.3132 
     15 C9         11.2900   11.9467    1.8543 C.2       1 <0>        -0.2147 
     16 C10        11.7047   12.7239    2.8774 C.2       1 <0>         0.0261 
     17 C11        13.0799   13.1827    3.1602 C.ar      1 <0>        -0.1208 
     18 C12        14.2018   12.6537    2.5063 C.ar      1 <0>        -0.1017 
     19 C13        15.4667   13.1847    2.7468 C.ar      1 <0>        -0.1326 
     20 C14        15.6144   14.2495    3.6330 C.ar      1 <0>        -0.1054 
     21 C15        14.5101   14.7702    4.3033 C.ar      1 <0>        -0.1326 
     22 C16        13.2487   14.2340    4.0689 C.ar      1 <0>        -0.1017 
     23 N6          8.1143    9.8098   -0.9969 N.pl3     1 <0>        -0.4356 
     24 C17         9.1897    9.2386   -1.8368 C.3       1 <0>        -0.0764 
     25 C18         9.0695    7.7172   -2.0596 C.3       1 <0>         0.0570 
     26 N7          7.6890    7.4047   -2.6657 N.4       1 <0>        -0.4418 
     27 C19         6.5880    7.9331   -1.7258 C.3       1 <0>         0.0570 
     28 C20         6.7860    9.4529   -1.5345 C.3       1 <0>        -0.0764 
     29 C21         7.5324    5.8848   -2.8902 C.3       1 <0>        -0.0101 
     30 H2          9.1128   13.7452    7.6639 H         1 <0>         0.0842 
     31 H3          9.2961   15.0532    6.5686 H         1 <0>         0.0842 
     32 H4          7.9374   15.0534    7.7067 H         1 <0>         0.0842 
     33 H5          8.4609   13.9813    4.0473 H         1 <0>         0.1895 
     34 H6          5.7581   11.4579    2.9769 H         1 <0>         0.3335 
     35 H7          6.2879   10.5812    0.9238 H         1 <0>         0.1651 
     36 H8         12.0127   11.5781    1.1419 H         1 <0>         0.1456 
     37 H9         10.9610   13.0643    3.5843 H         1 <0>         0.1506 
     38 H10        14.1000   11.8526    1.7913 H         1 <0>         0.1323 
     39 H11        16.3306   12.7845    2.2360 H         1 <0>         0.1382 
     40 H12        16.5962   14.6654    3.8104 H         1 <0>         0.1382 
     41 H13        14.6313   15.5870    5.0005 H         1 <0>         0.1382 
     42 H14        12.3969   14.6575    4.5819 H         1 <0>         0.1323 
     43 H15         9.1508    9.7780   -2.7845 H         1 <0>         0.1105 
     44 H16        10.1745    9.4325   -1.4179 H         1 <0>         0.1105 
     45 H17         9.8094    7.3839   -2.7876 H         1 <0>         0.1294 
     46 H18         9.1698    7.1468   -1.1356 H         1 <0>         0.1294 
     47 H19         5.6399    7.7381   -2.2324 H         1 <0>         0.1294 
     48 H20         6.6341    7.3783   -0.7846 H         1 <0>         0.1294 
     49 H21         5.9668    9.8463   -0.9377 H         1 <0>         0.1105 
     50 H22         6.7063    9.9697   -2.4934 H         1 <0>         0.1105 
     51 H23         7.6250    5.3799   -1.9249 H         1 <0>         0.1248 
     52 H24         6.5485    5.7149   -3.3329 H         1 <0>         0.1248 
     53 H25         8.3211    5.5718   -3.5766 H         1 <0>         0.1248 
     54 H26         7.6102    7.8898   -3.5516 H         1 <0>         0.3094 
@<TRIPOS>BOND
     1    1    2 1    
     2    1   30 1    
     3    1   31 1    
     4    1   32 1    
     5    2    6 ar   
     6    2    3 ar   
     7    3    4 ar   
     8    3   33 1    
     9    4    5 ar   
    10    4    8 1    
    11    5    6 ar   
    12    6    7 1    
    13    8    9 1    
    14    8   34 1    
    15    9   14 ar   
    16    9   10 ar   
    17   10   11 ar   
    18   10   35 1    
    19   11   12 ar   
    20   11   23 1    
    21   12   13 ar   
    22   13   14 ar   
    23   13   15 1    
    24   15   16 2    
    25   15   36 1    
    26   16   17 1    
    27   16   37 1    
    28   17   22 ar   
    29   17   18 ar   
    30   18   19 ar   
    31   18   38 1    
    32   19   20 ar   
    33   19   39 1    
    34   20   21 ar   
    35   20   40 1    
    36   21   22 ar   
    37   21   41 1    
    38   22   42 1    
    39   23   28 1    
    40   23   24 1    
    41   24   25 1    
    42   24   43 1    
    43   24   44 1    
    44   25   26 1    
    45   25   45 1    
    46   25   46 1    
    47   26   27 1    
    48   26   29 1    
    49   26   54 1    
    50   27   28 1    
    51   27   47 1    
    52   27   48 1    
    53   28   49 1    
    54   28   50 1    
    55   29   51 1    
    56   29   52 1    
    57   29   53 1    
@<TRIPOS>SUBSTRUCTURE
     1 <0>         1 GROUP             0       ****    0 ROOT    
@<TRIPOS>MOLECULE
CHEMBL255738
35   37    1
SMALL
USER_CHARGES


@<TRIPOS>ATOM
      1 C1         19.7503   17.4155    4.6146 C.ar      1 <0>        -0.0836 
      2 C2         21.0277   17.9519    4.7475 C.ar      1 <0>        -0.1685 
      3 C3         22.0046   17.2455    5.4431 C.ar      1 <0>         0.2232 
      4 C4         21.7230   15.9963    5.9927 C.ar      1 <0>        -0.1685 
      5 C5         20.4455   15.4550    5.8591 C.ar      1 <0>        -0.0836 
      6 C6         19.4533   16.1722    5.1802 C.ar      1 <0>        -0.1051 
      7 C7         18.0390   15.6218    5.0803 C.3       1 <0>         0.0333 
      8 S1         17.8438   14.4835    3.6710 S.3       1 <0>        -0.2314 
      9 C8         16.0850   14.3006    3.6643 C.2       1 <0>         0.0659 
     10 N1         15.2310   15.0530    4.3243 N.2       1 <0>        -0.1554 
     11 N2         13.9111   14.6585    4.1631 N.2       1 <0>        -0.0300 
     12 C9         13.7957   13.6072    3.3827 C.2       1 <0>         0.0261 
     13 S2         15.3134   13.0146    2.7759 S.3       1 <0>         0.0972 
     14 N3         12.6299   12.9867    2.9560 N.am      1 <0>        -0.3468 
     15 C10        11.3645   13.3559    3.2644 C.2       1 <0>         0.5402 
     16 O1         11.0815   14.2536    4.0627 O.2       1 <0>        -0.4791 
     17 C11        10.2575   12.5670    2.5941 C.ar      1 <0>        -0.1834 
     18 C12        10.5017   11.7469    1.4777 C.ar      1 <0>        -0.0689 
     19 C13         9.4583   11.0534    0.8709 C.ar      1 <0>        -0.1712 
     20 C14         8.1650   11.1684    1.3673 C.ar      1 <0>         0.2312 
     21 C15         7.9053   11.9721    2.4715 C.ar      1 <0>        -0.1712 
     22 C16         8.9453   12.6668    3.0827 C.ar      1 <0>        -0.0689 
     23 F1          7.1546   10.4936    0.7742 F         1 <0>        -0.2122 
     24 F2         23.2331   17.7867    5.5889 F         1 <0>        -0.2161 
     25 H1         18.9926   17.9711    4.0815 H         1 <0>         0.1432 
     26 H2         21.2639   18.9156    4.3220 H         1 <0>         0.1495 
     27 H3         22.4964   15.4539    6.5200 H         1 <0>         0.1495 
     28 H4         20.2300   14.4871    6.2879 H         1 <0>         0.1432 
     29 H5         17.7793   15.0992    6.0026 H         1 <0>         0.1150 
     30 H6         17.3390   16.4538    4.9895 H         1 <0>         0.1150 
     31 H7         12.7478   12.1614    2.3866 H         1 <0>         0.3095 
     32 H8         11.4902   11.6358    1.0542 H         1 <0>         0.1480 
     33 H9          9.6464   10.4165    0.0190 H         1 <0>         0.1529 
     34 H10         6.8993   12.0468    2.8563 H         1 <0>         0.1529 
     35 H11         8.7185   13.2815    3.9429 H         1 <0>         0.1480 
@<TRIPOS>BOND
     1    1    6 ar   
     2    1    2 ar   
     3    1   25 1    
     4    2    3 ar   
     5    2   26 1    
     6    3    4 ar   
     7    3   24 1    
     8    4    5 ar   
     9    4   27 1    
    10    5    6 ar   
    11    5   28 1    
    12    6    7 1    
    13    7    8 1    
    14    7   29 1    
    15    7   30 1    
    16    8    9 1    
    17    9   13 1    
    18    9   10 2    
    19   10   11 1    
    20   11   12 2    
    21   12   13 1    
    22   12   14 am   BACKBONE|DICT|INTERRES
    23   14   15 am   BACKBONE|DICT|INTERRES
    24   14   31 1    
    25   15   16 2    
    26   15   17 1    
    27   17   22 ar   
    28   17   18 ar   
    29   18   19 ar   
    30   18   32 1    
    31   19   20 ar   
    32   19   33 1    
    33   20   21 ar   
    34   20   23 1    
    35   21   22 ar   
    36   21   34 1    
    37   22   35 1    
@<TRIPOS>SUBSTRUCTURE
     1 <0>         1 GROUP             0       ****    0 ROOT    
@<TRIPOS>MOLECULE
CHEMBL406845
37   39    1
SMALL
USER_CHARGES


@<TRIPOS>ATOM
      1 C1          8.9501   11.1199   -0.4771 C.3       1 <0>        -0.1994 
      2 C2          8.1651   11.6394    0.7570 C.3       1 <0>         0.1037 
      3 C3          7.2781   12.8162    0.2881 C.3       1 <0>        -0.1994 
      4 C4          7.3019   10.4865    1.3163 C.3       1 <0>        -0.1994 
      5 N1          9.0736   12.1141    1.8381 N.pl3     1 <0>         0.0260 
      6 C5          8.7630   12.7129    3.0480 C.ar      1 <0>         0.3172 
      7 C6          9.9979   12.9559    3.6994 C.ar      1 <0>        -0.1511 
      8 C7         11.0078   12.4243    2.8201 C.ar      1 <0>        -0.0234 
      9 N2         10.4122   11.9514    1.7443 N.2       1 <0>        -0.2309 
     10 C8         12.5144   12.3041    2.9547 C.ar      1 <0>        -0.0243 
     11 C9         13.2567   12.2504    4.1378 C.ar      1 <0>        -0.0981 
     12 C10        14.6372   12.1186    4.0955 C.ar      1 <0>        -0.1257 
     13 C11        15.3415   12.2468    2.9184 C.ar      1 <0>         0.0773 
     14 C12        14.6339   12.3094    1.7528 C.ar      1 <0>        -0.1257 
     15 C13        13.2449   12.2503    1.7720 C.ar      1 <0>        -0.0981 
     16 Cl1        17.0667   12.2659    2.8902 Cl        1 <0>        -0.1505 
     17 C14         9.8850   13.5593    4.9623 C.ar      1 <0>         0.3889 
     18 N3          8.6870   13.8637    5.5120 N.ar      1 <0>        -0.4446 
     19 C15         7.5895   13.5742    4.7741 C.ar      1 <0>         0.2230 
     20 N4          7.5512   13.0127    3.5394 N.ar      1 <0>        -0.4511 
     21 N5         10.9941   13.8408    5.7396 N.pl3     1 <0>        -0.8011 
     22 H1          9.6236   11.8835   -0.8711 H         1 <0>         0.0765 
     23 H2          9.5512   10.2437   -0.2294 H         1 <0>         0.0765 
     24 H3          8.2825   10.8324   -1.2904 H         1 <0>         0.0765 
     25 H4          6.6122   12.5115   -0.5205 H         1 <0>         0.0765 
     26 H5          6.6455   13.2060    1.0844 H         1 <0>         0.0765 
     27 H6          7.8852   13.6416   -0.0853 H         1 <0>         0.0765 
     28 H7          7.9235    9.6595    1.6638 H         1 <0>         0.0765 
     29 H8          6.6895   10.8025    2.1611 H         1 <0>         0.0765 
     30 H9          6.6258   10.0895    0.5589 H         1 <0>         0.0765 
     31 H10        12.8324   12.2513    5.1192 H         1 <0>         0.1459 
     32 H11        15.1684   11.8567    4.9798 H         1 <0>         0.1478 
     33 H12        15.2052   12.4118    0.8664 H         1 <0>         0.1478 
     34 H13        12.6912   12.3509    0.8722 H         1 <0>         0.1459 
     35 H14         6.6356   13.8146    5.2218 H         1 <0>         0.1581 
     36 H15        11.9150   13.7256    5.3391 H         1 <0>         0.3760 
     37 H16        10.8602   14.2493    6.6463 H         1 <0>         0.3760 
@<TRIPOS>BOND
     1    1    2 1    
     2    1   22 1    
     3    1   23 1    
     4    1   24 1    
     5    2    3 1    
     6    2    4 1    
     7    2    5 1    
     8    3   25 1    
     9    3   26 1    
    10    3   27 1    
    11    4   28 1    
    12    4   29 1    
    13    4   30 1    
    14    5    9 ar   
    15    5    6 ar   
    16    6   20 ar   
    17    6    7 ar   
    18    7    8 ar   
    19    7   17 ar   
    20    8    9 ar   
    21    8   10 1    
    22   10   15 ar   
    23   10   11 ar   
    24   11   12 ar   
    25   11   31 1    
    26   12   13 ar   
    27   12   32 1    
    28   13   14 ar   
    29   13   16 1    
    30   14   15 ar   
    31   14   33 1    
    32   15   34 1    
    33   17   18 ar   
    34   17   21 1    
    35   18   19 ar   
    36   19   20 ar   
    37   19   35 1    
    38   21   36 1    
    39   21   37 1    
@<TRIPOS>SUBSTRUCTURE
     1 <0>         1 GROUP             0       ****    0 ROOT    
@<TRIPOS>MOLECULE
CHEMBL473923
50   53    1
SMALL
USER_CHARGES


@<TRIPOS>ATOM
      1 C1          5.1005   18.3609    2.8753 C.3       1 <0>        -0.0803 
      2 N1          6.1076   17.3153    2.6800 N.pl3     1 <0>        -0.3449 
      3 C2          7.1290   17.5670    1.6685 C.3       1 <0>        -0.0803 
      4 C3          6.2587   16.2746    3.6343 C.ar      1 <0>         0.5630 
      5 N2          7.3429   15.4525    3.5190 N.ar      1 <0>        -0.5072 
      6 C4          7.3863   14.4695    4.4189 C.ar      1 <0>         0.3720 
      7 C5          6.4224   14.2352    5.4257 C.ar      1 <0>        -0.1421 
      8 C6          6.8864   13.0442    6.0665 C.ar      1 <0>        -0.0838 
      9 N3          8.0285   12.6539    5.5730 N.2       1 <0>        -0.2896 
     10 N4          8.3648   13.5049    4.5865 N.pl3     1 <0>        -0.0015 
     11 C7          9.6495   13.3261    3.9055 C.3       1 <0>         0.0037 
     12 C8         10.8339   13.9772    4.6853 C.3       1 <0>         0.0620 
     13 C9         12.2277   13.8002    4.0602 C.ar      1 <0>        -0.1015 
     14 C10        12.5224   12.7743    3.1527 C.ar      1 <0>        -0.1075 
     15 C11        13.8067   12.6491    2.6255 C.ar      1 <0>        -0.1301 
     16 C12        14.8107   13.5314    3.0124 C.ar      1 <0>        -0.1186 
     17 C13        14.5346   14.5488    3.9195 C.ar      1 <0>        -0.1301 
     18 C14        13.2502   14.6776    4.4372 C.ar      1 <0>        -0.1075 
     19 Cl1        10.8730   13.4537    6.4003 Cl        1 <0>        -0.2161 
     20 C15         5.3556   15.1584    5.5022 C.ar      1 <0>         0.4992 
     21 N5          5.3004   16.1713    4.5953 N.ar      1 <0>        -0.4996 
     22 N6          4.3629   15.1248    6.4914 N.pl3     1 <0>        -0.4409 
     23 C16         4.2392   14.0024    7.4434 C.3       1 <0>        -0.0428 
     24 C17         3.2651   14.1759    8.6285 C.3       1 <0>         0.1281 
     25 O1          2.0509   14.7912    8.2321 O.3       1 <0>        -0.4469 
     26 C18         2.2819   16.0592    7.6462 C.3       1 <0>         0.1281 
     27 C19         3.1164   15.9106    6.3600 C.3       1 <0>        -0.0428 
     28 H1          5.0006   19.0028    1.9991 H         1 <0>         0.0711 
     29 H2          4.1214   17.9290    3.0879 H         1 <0>         0.0711 
     30 H3          5.3687   18.9859    3.7269 H         1 <0>         0.0711 
     31 H4          7.8922   18.2352    2.0655 H         1 <0>         0.0711 
     32 H5          7.6180   16.6538    1.3281 H         1 <0>         0.0711 
     33 H6          6.6860   18.0376    0.7903 H         1 <0>         0.0711 
     34 H7          6.4331   12.4759    6.8651 H         1 <0>         0.2016 
     35 H8          9.8008   12.2542    3.7742 H         1 <0>         0.1090 
     36 H9          9.5654   13.7573    2.9071 H         1 <0>         0.1090 
     37 H10        10.6409   15.0509    4.7192 H         1 <0>         0.1137 
     38 H11        11.7744   12.0578    2.8534 H         1 <0>         0.1360 
     39 H12        14.0246   11.8563    1.9235 H         1 <0>         0.1341 
     40 H13        15.8063   13.4261    2.6072 H         1 <0>         0.1321 
     41 H14        15.3112   15.2343    4.2250 H         1 <0>         0.1341 
     42 H15        13.0634   15.4564    5.1553 H         1 <0>         0.1360 
     43 H16         4.0001   13.0885    6.8986 H         1 <0>         0.0777 
     44 H17         5.2159   13.8562    7.9011 H         1 <0>         0.0777 
     45 H18         3.0481   13.2048    9.0740 H         1 <0>         0.0538 
     46 H19         3.7488   14.7722    9.4072 H         1 <0>         0.0538 
     47 H20         1.3270   16.5434    7.4348 H         1 <0>         0.0538 
     48 H21         2.8110   16.7039    8.3523 H         1 <0>         0.0538 
     49 H22         3.3601   16.9200    6.0236 H         1 <0>         0.0777 
     50 H23         2.5080   15.4615    5.5725 H         1 <0>         0.0777 
@<TRIPOS>BOND
     1    1    2 1    
     2    1   28 1    
     3    1   29 1    
     4    1   30 1    
     5    2    3 1    
     6    2    4 1    
     7    3   31 1    
     8    3   32 1    
     9    3   33 1    
    10    4   21 ar   
    11    4    5 ar   
    12    5    6 ar   
    13    6   10 ar   
    14    6    7 ar   
    15    7    8 ar   
    16    7   20 ar   
    17    8    9 ar   
    18    8   34 1    
    19    9   10 ar   
    20   10   11 1    
    21   11   12 1    
    22   11   35 1    
    23   11   36 1    
    24   12   13 1    
    25   12   19 1    
    26   12   37 1    
    27   13   18 ar   
    28   13   14 ar   
    29   14   15 ar   
    30   14   38 1    
    31   15   16 ar   
    32   15   39 1    
    33   16   17 ar   
    34   16   40 1    
    35   17   18 ar   
    36   17   41 1    
    37   18   42 1    
    38   20   21 ar   
    39   20   22 1    
    40   22   27 1    
    41   22   23 1    
    42   23   24 1    
    43   23   43 1    
    44   23   44 1    
    45   24   25 1    
    46   24   45 1    
    47   24   46 1    
    48   25   26 1    
    49   26   27 1    
    50   26   47 1    
    51   26   48 1    
    52   27   49 1    
    53   27   50 1    
@<TRIPOS>SUBSTRUCTURE
     1 <0>         1 GROUP             0       ****    0 ROOT    
@<TRIPOS>MOLECULE
CHEMBL473923
50   53    1
SMALL
USER_CHARGES


@<TRIPOS>ATOM
      1 C1          3.2552    9.1547    5.0996 C.3       1 <0>        -0.0803 
      2 N1          4.5857    9.7291    4.8841 N.pl3     1 <0>        -0.3449 
      3 C2          5.3717    9.1311    3.8048 C.3       1 <0>        -0.0803 
      4 C3          4.9204   11.0045    5.4177 C.ar      1 <0>         0.5630 
      5 N2          6.1402   11.5293    5.1086 N.ar      1 <0>        -0.5072 
      6 C4          6.3829   12.7256    5.6508 C.ar      1 <0>         0.3720 
      7 C5          5.5019   13.4548    6.4724 C.ar      1 <0>        -0.1421 
      8 C6          6.2316   14.6523    6.7789 C.ar      1 <0>        -0.0838 
      9 N3          7.4359   14.6252    6.2685 N.2       1 <0>        -0.2896 
     10 N4          7.5486   13.4658    5.5878 N.pl3     1 <0>        -0.0015 
     11 C7          8.8253   13.0706    5.0077 C.3       1 <0>         0.0037 
     12 C8          9.5155   14.1603    4.1691 C.3       1 <0>         0.0620 
     13 C9         10.8645   13.6509    3.6664 C.ar      1 <0>        -0.1015 
     14 C10        10.9394   12.7656    2.5842 C.ar      1 <0>        -0.1075 
     15 C11        12.1720   12.2568    2.1855 C.ar      1 <0>        -0.1302 
     16 C12        13.3285   12.6357    2.8645 C.ar      1 <0>        -0.1186 
     17 C13        13.2648   13.5073    3.9473 C.ar      1 <0>        -0.1302 
     18 C14        12.0313   14.0071    4.3510 C.ar      1 <0>        -0.1075 
     19 Cl1         8.4316   14.6712    2.8420 Cl        1 <0>        -0.2161 
     20 C15         4.2814   12.8136    6.7886 C.ar      1 <0>         0.4992 
     21 N5          4.0052   11.6090    6.2205 N.ar      1 <0>        -0.4996 
     22 N6          3.3276   13.3253    7.6792 N.pl3     1 <0>        -0.4409 
     23 C16         3.5753   14.5377    8.4796 C.3       1 <0>        -0.0428 
     24 C17         2.3578   15.1051    9.2381 C.3       1 <0>         0.1281 
     25 O1          1.6781   14.0959    9.9642 O.3       1 <0>        -0.4469 
     26 C18         1.2361   13.0473    9.1190 C.3       1 <0>         0.1281 
     27 C19         2.4170   12.3938    8.3819 C.3       1 <0>        -0.0428 
     28 H1          3.2988    8.0654    5.0956 H         1 <0>         0.0711 
     29 H2          2.8294    9.4469    6.0604 H         1 <0>         0.0711 
     30 H3          2.5676    9.4812    4.3212 H         1 <0>         0.0711 
     31 H4          5.0200    9.4911    2.8379 H         1 <0>         0.0711 
     32 H5          6.4304    9.3714    3.8774 H         1 <0>         0.0711 
     33 H6          5.2912    8.0440    3.8233 H         1 <0>         0.0711 
     34 H7          5.9406   15.4838    7.4013 H         1 <0>         0.2016 
     35 H8          9.4631   12.7497    5.8312 H         1 <0>         0.1090 
     36 H9          8.6450   12.2124    4.3667 H         1 <0>         0.1090 
     37 H10         9.6875   15.0515    4.7747 H         1 <0>         0.1137 
     38 H11        10.0456   12.4563    2.0608 H         1 <0>         0.1360 
     39 H12        12.2328   11.5628    1.3585 H         1 <0>         0.1341 
     40 H13        14.2805   12.2309    2.5542 H         1 <0>         0.1321 
     41 H14        14.1648   13.7819    4.4791 H         1 <0>         0.1341 
     42 H15        11.9851   14.6533    5.2117 H         1 <0>         0.1360 
     43 H16         4.3964   14.3441    9.1724 H         1 <0>         0.0777 
     44 H17         3.8952   15.3278    7.8044 H         1 <0>         0.0777 
     45 H18         2.6780   15.8838    9.9293 H         1 <0>         0.0538 
     46 H19         1.6740   15.5745    8.5297 H         1 <0>         0.0538 
     47 H20         0.7101   12.3022    9.7158 H         1 <0>         0.0538 
     48 H21         0.5311   13.4322    8.3820 H         1 <0>         0.0538 
     49 H22         1.9943   11.6805    7.6719 H         1 <0>         0.0777 
     50 H23         3.0052   11.7986    9.0824 H         1 <0>         0.0777 
@<TRIPOS>BOND
     1    1    2 1    
     2    1   28 1    
     3    1   29 1    
     4    1   30 1    
     5    2    3 1    
     6    2    4 1    
     7    3   31 1    
     8    3   32 1    
     9    3   33 1    
    10    4   21 ar   
    11    4    5 ar   
    12    5    6 ar   
    13    6   10 ar   
    14    6    7 ar   
    15    7    8 ar   
    16    7   20 ar   
    17    8    9 ar   
    18    8   34 1    
    19    9   10 ar   
    20   10   11 1    
    21   11   12 1    
    22   11   35 1    
    23   11   36 1    
    24   12   13 1    
    25   12   19 1    
    26   12   37 1    
    27   13   18 ar   
    28   13   14 ar   
    29   14   15 ar   
    30   14   38 1    
    31   15   16 ar   
    32   15   39 1    
    33   16   17 ar   
    34   16   40 1    
    35   17   18 ar   
    36   17   41 1    
    37   18   42 1    
    38   20   21 ar   
    39   20   22 1    
    40   22   27 1    
    41   22   23 1    
    42   23   24 1    
    43   23   43 1    
    44   23   44 1    
    45   24   25 1    
    46   24   45 1    
    47   24   46 1    
    48   25   26 1    
    49   26   27 1    
    50   26   47 1    
    51   26   48 1    
    52   27   49 1    
    53   27   50 1    
@<TRIPOS>SUBSTRUCTURE
     1 <0>         1 GROUP             0       ****    0 ROOT    
@<TRIPOS>MOLECULE
CHEMBL251015
68   73    1
SMALL
USER_CHARGES


@<TRIPOS>ATOM
      1 C1         10.3668   13.9505    6.0054 C.3       1 <0>        -0.1169 
      2 C2         11.3613   13.8297    4.8528 C.ar      1 <0>        -0.1451 
      3 C3         12.7057   14.1791    4.9980 C.ar      1 <0>        -0.0621 
      4 C4         13.6555   13.9930    3.9940 C.ar      1 <0>        -0.0146 
      5 C5         13.2633   13.2805    2.8644 C.ar      1 <0>        -0.1289 
      6 C6         11.9140   12.9103    2.6614 C.ar      1 <0>        -0.1055 
      7 C7         10.9352   13.2449    3.6346 C.ar      1 <0>         0.1884 
      8 N1          9.6268   12.9384    3.4218 N.ar      1 <0>        -0.3279 
      9 C8          9.3398   12.2678    2.2859 C.ar      1 <0>         0.4006 
     10 N2         10.2528   11.9141    1.3460 N.ar      1 <0>        -0.3295 
     11 N3         11.5413   12.2411    1.5364 N.ar      1 <0>         0.1952 
     12 N4          7.9893   11.9388    2.1453 N.pl3     1 <0>        -0.6329 
     13 C9          7.2957   11.0063    1.3625 C.ar      1 <0>         0.3232 
     14 C10         7.9243   10.0936    0.5080 C.ar      1 <0>        -0.1866 
     15 C11         7.1785    9.1097   -0.1328 C.ar      1 <0>         0.0010 
     16 C12         5.8014    9.0397    0.0740 C.ar      1 <0>        -0.2312 
     17 C13         5.1596    9.9776    0.8849 C.ar      1 <0>         0.0010 
     18 C14         5.9104   10.9559    1.5272 C.ar      1 <0>        -0.1866 
     19 S1          4.8705    7.7022   -0.6590 S.o2      1 <0>         0.9150 
     20 O1          3.4963    7.7820   -0.1516 O.2       1 <0>        -0.4735 
     21 O2          5.1568    7.7162   -2.0968 O.2       1 <0>        -0.4735 
     22 N5          5.6046    6.2498    0.0020 N.pl3     1 <0>        -0.6446 
     23 C15         5.7022    6.1050    1.4702 C.3       1 <0>        -0.0129 
     24 C16         5.5417    4.6364    1.9080 C.3       1 <0>         0.0697 
     25 N6          4.0576    4.3021    2.1890 N.4       1 <0>        -0.4379 
     26 C17         3.1395    4.3376    0.9532 C.3       1 <0>         0.0297 
     27 C18         1.9123    3.5550    1.4055 C.3       1 <0>        -0.1603 
     28 C19         2.4301    2.4798    2.3616 C.3       1 <0>        -0.1603 
     29 C20         3.8529    2.8857    2.7667 C.3       1 <0>         0.0297 
     30 C21        15.0410   14.5400    4.1578 C.ar      1 <0>        -0.1816 
     31 C22        15.2541   15.6945    4.9222 C.ar      1 <0>        -0.1437 
     32 C23        16.5179   16.1665    5.2631 C.ar      1 <0>        -0.1686 
     33 C24        17.6668   15.5778    4.7442 C.ar      1 <0>        -0.2368 
     34 C25        17.4885   14.4402    3.9534 C.ar      1 <0>         0.0988 
     35 C26        16.1937   13.8865    3.6641 C.ar      1 <0>         0.2810 
     36 C27        16.4307   12.6548    2.9614 C.ar      1 <0>        -0.5000 
     37 C28        17.7928   12.5072    2.8646 C.ar      1 <0>        -0.1189 
     38 N7         18.4182   13.6161    3.3646 N.pl3     1 <0>        -0.2256 
     39 H1         19.4236   13.7244    3.3649 H         1 <0>         0.2935 
     40 H2          9.8884   12.9877    6.1856 H         1 <0>         0.0782 
     41 H3         10.8319   14.2422    6.9440 H         1 <0>         0.0782 
     42 H4          9.5772   14.6569    5.7626 H         1 <0>         0.0782 
     43 H5         13.0456   14.6020    5.9242 H         1 <0>         0.1548 
     44 H6         13.9701   13.0646    2.0788 H         1 <0>         0.1653 
     45 H7          7.4297   12.3309    2.8856 H         1 <0>         0.3332 
     46 H8          8.9907   10.0821    0.3637 H         1 <0>         0.1623 
     47 H9          7.6824    8.3846   -0.7581 H         1 <0>         0.1485 
     48 H10         4.0900    9.9356    1.0459 H         1 <0>         0.1485 
     49 H11         5.4090   11.6513    2.1856 H         1 <0>         0.1623 
     50 H12         6.4225    5.9290   -0.5250 H         1 <0>         0.3137 
     51 H13         6.6846    6.4823    1.7595 H         1 <0>         0.1247 
     52 H14         4.9653    6.7558    1.9488 H         1 <0>         0.1247 
     53 H15         5.8976    3.9169    1.1690 H         1 <0>         0.1250 
     54 H16         6.0331    4.4551    2.8636 H         1 <0>         0.1250 
     55 H17         2.9488    5.3768    0.6825 H         1 <0>         0.1290 
     56 H18         3.6828    3.8537    0.1394 H         1 <0>         0.1290 
     57 H19         1.2183    4.2220    1.9208 H         1 <0>         0.1208 
     58 H20         1.3766    3.1232    0.5587 H         1 <0>         0.1208 
     59 H21         1.7836    2.3840    3.2359 H         1 <0>         0.1208 
     60 H22         2.4499    1.5036    1.8733 H         1 <0>         0.1208 
     61 H23         4.5934    2.2379    2.2938 H         1 <0>         0.1290 
     62 H24         4.0354    2.9269    3.8409 H         1 <0>         0.1290 
     63 H25        14.4078   16.2522    5.2746 H         1 <0>         0.1520 
     64 H26        16.6043   17.0451    5.8862 H         1 <0>         0.1576 
     65 H27        18.6484   15.9650    4.9761 H         1 <0>         0.1749 
     66 H28        15.7069   11.9245    2.6341 H         1 <0>         0.2360 
     67 H29        18.3897   11.7020    2.4681 H         1 <0>         0.2125 
     68 H30         3.7061    4.9758    2.8580 H         1 <0>         0.3242 
@<TRIPOS>BOND
     1    1    2 1    
     2    1   40 1    
     3    1   41 1    
     4    1   42 1    
     5    2    7 ar   
     6    2    3 ar   
     7    3    4 ar   
     8    3   43 1    
     9    4    5 ar   
    10    4   30 1    
    11    5    6 ar   
    12    5   44 1    
    13    6   11 ar   
    14    6    7 ar   
    15    7    8 ar   
    16    8    9 ar   
    17    9   10 ar   
    18    9   12 1    
    19   10   11 ar   
    20   12   13 1    
    21   12   45 1    
    22   13   18 ar   
    23   13   14 ar   
    24   14   15 ar   
    25   14   46 1    
    26   15   16 ar   
    27   15   47 1    
    28   16   17 ar   
    29   16   19 1    
    30   17   18 ar   
    31   17   48 1    
    32   18   49 1    
    33   19   20 2    
    34   19   21 2    
    35   19   22 1    
    36   22   23 1    
    37   22   50 1    
    38   23   24 1    
    39   23   51 1    
    40   23   52 1    
    41   24   25 1    
    42   24   53 1    
    43   24   54 1    
    44   25   29 1    
    45   25   26 1    
    46   25   68 1    
    47   26   27 1    
    48   26   55 1    
    49   26   56 1    
    50   27   28 1    
    51   27   57 1    
    52   27   58 1    
    53   28   29 1    
    54   28   59 1    
    55   28   60 1    
    56   29   61 1    
    57   29   62 1    
    58   30   35 ar   
    59   30   31 ar   
    60   31   32 ar   
    61   31   63 1    
    62   32   33 ar   
    63   32   64 1    
    64   33   34 ar   
    65   33   65 1    
    66   34   38 ar   
    67   34   35 ar   
    68   35   36 ar   
    69   36   37 ar   
    70   36   66 1    
    71   37   38 ar   
    72   37   67 1    
    73   38   39 1    
@<TRIPOS>SUBSTRUCTURE
     1 <0>         1 GROUP             0       ****    0 ROOT    
@<TRIPOS>MOLECULE
CHEMBL206046
37   39    1
SMALL
USER_CHARGES


@<TRIPOS>ATOM
      1 C1          7.5123   11.0614    1.6637 C.ar      1 <0>        -0.1265 
      2 C2          7.5485   12.1465    2.5377 C.ar      1 <0>        -0.1271 
      3 C3          8.7416   12.8392    2.7271 C.ar      1 <0>        -0.1216 
      4 C4          9.8934   12.4415    2.0429 C.ar      1 <0>        -0.0904 
      5 C5          9.8545   11.3429    1.1816 C.ar      1 <0>        -0.1216 
      6 C6          8.6601   10.6557    0.9864 C.ar      1 <0>        -0.1271 
      7 C7         11.1876   13.2193    2.2150 C.3       1 <0>        -0.0802 
      8 C8         12.0979   12.6531    3.3015 C.3       1 <0>        -0.1362 
      9 C9         13.2827   13.5333    3.6146 C.2       1 <0>         0.0141 
     10 N1         13.1228   14.6736    4.2356 N.2       1 <0>        -0.1118 
     11 N2         14.3045   15.3475    4.4675 N.2       1 <0>        -0.0623 
     12 C10        15.3555   14.6740    4.0641 C.2       1 <0>         0.0317 
     13 S1         14.9583   13.1780    3.2637 S.3       1 <0>         0.0601 
     14 N3         16.6802   15.0578    4.2420 N.am      1 <0>        -0.3472 
     15 C11        17.1044   15.8548    5.2565 C.2       1 <0>         0.5380 
     16 O1         16.3939   16.2421    6.1853 O.2       1 <0>        -0.4782 
     17 C12        18.5395   16.3015    5.2136 C.ar      1 <0>        -0.1509 
     18 C13        19.5594   15.4535    4.7653 C.ar      1 <0>        -0.0948 
     19 C14        20.8812   15.8877    4.7894 C.ar      1 <0>        -0.0978 
     20 C15        21.1880   17.1737    5.2343 C.ar      1 <0>         0.0129 
     21 C16        20.1789   18.0276    5.6616 C.ar      1 <0>        -0.0978 
     22 C17        18.8596   17.5897    5.6643 C.ar      1 <0>        -0.0948 
     23 I1         23.1645   17.8542    5.3004 I         1 <0>        -0.1143 
     24 H1          6.5888   10.5195    1.5217 H         1 <0>         0.1311 
     25 H2          6.6558   12.4449    3.0675 H         1 <0>         0.1321 
     26 H3          8.7667   13.6824    3.4016 H         1 <0>         0.1317 
     27 H4         10.7446   11.0184    0.6623 H         1 <0>         0.1317 
     28 H5          8.6295    9.8037    0.3231 H         1 <0>         0.1321 
     29 H6         11.7008   13.2297    1.2612 H         1 <0>         0.0809 
     30 H7         10.9467   14.2537    2.4645 H         1 <0>         0.0809 
     31 H8         11.4787   12.6538    4.1897 H         1 <0>         0.1004 
     32 H9         12.3909   11.6235    3.0870 H         1 <0>         0.1004 
     33 H10        17.3741   14.6247    3.6537 H         1 <0>         0.3095 
     34 H11        19.3478   14.4512    4.4212 H         1 <0>         0.1474 
     35 H12        21.6549   15.2128    4.4649 H         1 <0>         0.1493 
     36 H13        20.4253   19.0160    6.0200 H         1 <0>         0.1493 
     37 H14        18.0920   18.2532    6.0401 H         1 <0>         0.1474 
@<TRIPOS>BOND
     1    1    6 ar   
     2    1    2 ar   
     3    1   24 1    
     4    2    3 ar   
     5    2   25 1    
     6    3    4 ar   
     7    3   26 1    
     8    4    5 ar   
     9    4    7 1    
    10    5    6 ar   
    11    5   27 1    
    12    6   28 1    
    13    7    8 1    
    14    7   29 1    
    15    7   30 1    
    16    8    9 1    
    17    8   31 1    
    18    8   32 1    
    19    9   13 1    
    20    9   10 2    
    21   10   11 1    
    22   11   12 2    
    23   12   13 1    
    24   12   14 am   BACKBONE|DICT|INTERRES
    25   14   15 am   BACKBONE|DICT|INTERRES
    26   14   33 1    
    27   15   16 2    
    28   15   17 1    
    29   17   22 ar   
    30   17   18 ar   
    31   18   19 ar   
    32   18   34 1    
    33   19   20 ar   
    34   19   35 1    
    35   20   21 ar   
    36   20   23 1    
    37   21   22 ar   
    38   21   36 1    
    39   22   37 1    
@<TRIPOS>SUBSTRUCTURE
     1 <0>         1 GROUP             0       ****    0 ROOT    
@<TRIPOS>MOLECULE
CHEMBL941
69   73    1
SMALL
USER_CHARGES


@<TRIPOS>ATOM
      1 C1          5.3533   12.0448   -5.4948 C.3       1 <0>        -0.1255 
      2 C2          6.6977   11.3225   -5.5576 C.ar      1 <0>        -0.0987 
      3 C3          7.0264   10.6267   -6.7235 C.ar      1 <0>        -0.0948 
      4 C4          8.2350    9.9424   -6.8258 C.ar      1 <0>        -0.1414 
      5 C5          9.1451    9.9569   -5.7606 C.ar      1 <0>         0.0294 
      6 C6          8.8160   10.6512   -4.5927 C.ar      1 <0>        -0.1516 
      7 C7          7.5924   11.3223   -4.4701 C.ar      1 <0>         0.2325 
      8 N1          7.2587   12.0304   -3.3018 N.pl3     1 <0>        -0.6042 
      9 C8          7.6315   11.8825   -1.9588 C.ar      1 <0>         0.3638 
     10 N2          8.2912   10.7695   -1.5427 N.ar      1 <0>        -0.3312 
     11 C9          8.6370   10.7291   -0.2301 C.ar      1 <0>         0.0727 
     12 C10         8.3412   11.7645    0.6589 C.ar      1 <0>        -0.2636 
     13 C11         7.6538   12.8797    0.1510 C.ar      1 <0>         0.1650 
     14 N3          7.2725   12.9142   -1.1568 N.ar      1 <0>        -0.3031 
     15 C12         7.3228   14.0941    0.9687 C.ar      1 <0>        -0.0980 
     16 C13         6.4750   15.1102    0.4880 C.ar      1 <0>        -0.0617 
     17 C14         6.2198   16.2518    1.2469 C.ar      1 <0>        -0.1809 
     18 C15         6.8166   16.3584    2.4991 C.ar      1 <0>        -0.0067 
     19 N4          7.6303   15.4017    3.0052 N.ar      1 <0>        -0.2435 
     20 C16         7.8678   14.3011    2.2469 C.ar      1 <0>         0.0103 
     21 N5         10.3674    9.2630   -5.7548 N.am      1 <0>        -0.3649 
     22 C17        11.0656    8.7392   -6.7888 C.2       1 <0>         0.5431 
     23 O1         10.7910    8.9355   -7.9772 O.2       1 <0>        -0.4951 
     24 C18        12.2412    7.8555   -6.4157 C.ar      1 <0>        -0.1376 
     25 C19        12.7722    7.8520   -5.1169 C.ar      1 <0>        -0.0926 
     26 C20        13.8599    7.0495   -4.7954 C.ar      1 <0>        -0.1198 
     27 C21        14.4509    6.2488   -5.7694 C.ar      1 <0>        -0.1027 
     28 C22        13.9344    6.2361   -7.0660 C.ar      1 <0>        -0.1198 
     29 C23        12.8356    7.0326   -7.3855 C.ar      1 <0>        -0.0926 
     30 C24        15.6630    5.3976   -5.4027 C.3       1 <0>         0.1472 
     31 N6         15.3470    3.9778   -5.1959 N.3       1 <0>        -0.6961 
     32 C25        14.3781    3.7735   -4.1057 C.3       1 <0>         0.0451 
     33 C26        14.0067    2.2836   -3.9771 C.3       1 <0>         0.0641 
     34 N7         15.2935    1.4869   -3.6748 N.4       1 <0>        -0.4468 
     35 C27        16.3317    1.7203   -4.7957 C.3       1 <0>         0.0641 
     36 C28        16.5924    3.2345   -4.9492 C.3       1 <0>         0.0451 
     37 C29        14.9826   -0.0173   -3.5339 C.3       1 <0>        -0.0082 
     38 H1          5.4941   13.1207   -5.6181 H         1 <0>         0.0781 
     39 H2          4.6601   11.6823   -6.2552 H         1 <0>         0.0781 
     40 H3          4.8714   11.8750   -4.5315 H         1 <0>         0.0781 
     41 H4          6.3402   10.6069   -7.5595 H         1 <0>         0.1409 
     42 H5          8.4355    9.3931   -7.7330 H         1 <0>         0.1349 
     43 H6          9.5291   10.6961   -3.7815 H         1 <0>         0.1509 
     44 H7          6.8003   12.9106   -3.4800 H         1 <0>         0.3295 
     45 H8          9.1715    9.8538    0.1057 H         1 <0>         0.1670 
     46 H9          8.6457   11.6854    1.6912 H         1 <0>         0.1646 
     47 H10         6.0106   15.0264   -0.4836 H         1 <0>         0.1394 
     48 H11         5.5731   17.0316    0.8737 H         1 <0>         0.1489 
     49 H12         6.6354   17.2209    3.1235 H         1 <0>         0.1640 
     50 H13         8.5364   13.5856    2.6963 H         1 <0>         0.1640 
     51 H14        10.7645    9.1409   -4.8358 H         1 <0>         0.2970 
     52 H15        12.3623    8.4743   -4.3371 H         1 <0>         0.1514 
     53 H16        14.2512    7.0531   -3.7890 H         1 <0>         0.1333 
     54 H17        14.3815    5.6072   -7.8226 H         1 <0>         0.1333 
     55 H18        12.4538    7.0089   -8.3969 H         1 <0>         0.1514 
     56 H19        16.3822    5.4943   -6.2174 H         1 <0>         0.0830 
     57 H20        16.1509    5.8137   -4.5182 H         1 <0>         0.0830 
     58 H21        14.8300    4.1217   -3.1749 H         1 <0>         0.1041 
     59 H22        13.4615    4.3370   -4.2840 H         1 <0>         0.1041 
     60 H23        13.3305    2.1311   -3.1356 H         1 <0>         0.1318 
     61 H24        13.5540    1.8869   -4.8876 H         1 <0>         0.1318 
     62 H25        17.2411    1.2095   -4.4776 H         1 <0>         0.1318 
     63 H26        15.9464    1.2707   -5.7134 H         1 <0>         0.1318 
     64 H27        17.3077    3.3928   -5.7583 H         1 <0>         0.1041 
     65 H28        17.0259    3.6108   -4.0191 H         1 <0>         0.1041 
     66 H29        14.5843   -0.3791   -4.4829 H         1 <0>         0.1257 
     67 H30        15.9136   -0.5224   -3.2714 H         1 <0>         0.1257 
     68 H31        14.2495   -0.1232   -2.7356 H         1 <0>         0.1257 
     69 H32        15.6646    1.8367   -2.7992 H         1 <0>         0.3075 
@<TRIPOS>BOND
     1    1    2 1    
     2    1   38 1    
     3    1   39 1    
     4    1   40 1    
     5    2    7 ar   
     6    2    3 ar   
     7    3    4 ar   
     8    3   41 1    
     9    4    5 ar   
    10    4   42 1    
    11    5    6 ar   
    12    5   21 1    
    13    6    7 ar   
    14    6   43 1    
    15    7    8 1    
    16    8    9 1    
    17    8   44 1    
    18    9   14 ar   
    19    9   10 ar   
    20   10   11 ar   
    21   11   12 ar   
    22   11   45 1    
    23   12   13 ar   
    24   12   46 1    
    25   13   14 ar   
    26   13   15 1    
    27   15   20 ar   
    28   15   16 ar   
    29   16   17 ar   
    30   16   47 1    
    31   17   18 ar   
    32   17   48 1    
    33   18   19 ar   
    34   18   49 1    
    35   19   20 ar   
    36   20   50 1    
    37   21   22 am   BACKBONE|DICT|INTERRES
    38   21   51 1    
    39   22   23 2    
    40   22   24 1    
    41   24   29 ar   
    42   24   25 ar   
    43   25   26 ar   
    44   25   52 1    
    45   26   27 ar   
    46   26   53 1    
    47   27   28 ar   
    48   27   30 1    
    49   28   29 ar   
    50   28   54 1    
    51   29   55 1    
    52   30   31 1    
    53   30   56 1    
    54   30   57 1    
    55   31   36 1    
    56   31   32 1    
    57   32   33 1    
    58   32   58 1    
    59   32   59 1    
    60   33   34 1    
    61   33   60 1    
    62   33   61 1    
    63   34   35 1    
    64   34   37 1    
    65   34   69 1    
    66   35   36 1    
    67   35   62 1    
    68   35   63 1    
    69   36   64 1    
    70   36   65 1    
    71   37   66 1    
    72   37   67 1    
    73   37   68 1    
@<TRIPOS>SUBSTRUCTURE
     1 <0>         1 GROUP             0       ****    0 ROOT    
@<TRIPOS>MOLECULE
CHEMBL941
69   73    1
SMALL
USER_CHARGES


@<TRIPOS>ATOM
      1 C1          9.6572   13.9834    6.7821 C.3       1 <0>        -0.1268 
      2 C2          9.3410   13.6944    5.3238 C.ar      1 <0>        -0.0941 
      3 C3          8.0233   13.3524    4.9994 C.ar      1 <0>        -0.0932 
      4 C4          7.6736   13.0450    3.6899 C.ar      1 <0>        -0.1398 
      5 C5          8.6403   13.0816    2.6807 C.ar      1 <0>         0.0191 
      6 C6          9.9547   13.4137    3.0028 C.ar      1 <0>        -0.1507 
      7 C7         10.3269   13.7104    4.3181 C.ar      1 <0>         0.2354 
      8 N1         11.6555   14.0497    4.6300 N.pl3     1 <0>        -0.6047 
      9 C8         12.8759   13.7718    3.9976 C.ar      1 <0>         0.3631 
     10 N2         12.9341   12.8198    3.0323 N.ar      1 <0>        -0.3366 
     11 C9         14.1451   12.6011    2.4646 C.ar      1 <0>         0.0739 
     12 C10        15.2899   13.2946    2.8496 C.ar      1 <0>        -0.2619 
     13 C11        15.1510   14.2586    3.8579 C.ar      1 <0>         0.1664 
     14 N3         13.9363   14.4932    4.4370 N.ar      1 <0>        -0.3019 
     15 C12        16.3108   15.0552    4.3839 C.ar      1 <0>        -0.1001 
     16 C13        16.2037   15.8534    5.5376 C.ar      1 <0>        -0.0617 
     17 C14        17.2957   16.5846    6.0065 C.ar      1 <0>        -0.1806 
     18 C15        18.4943   16.5107    5.3022 C.ar      1 <0>        -0.0061 
     19 N4         18.6424   15.7553    4.1862 N.ar      1 <0>        -0.2412 
     20 C16        17.5691   15.0485    3.7541 C.ar      1 <0>         0.0103 
     21 N5          8.3826   12.7557    1.3448 N.am      1 <0>        -0.3538 
     22 C17         7.2355   12.9455    0.6547 C.2       1 <0>         0.5364 
     23 O1          6.2298   13.4726    1.1326 O.2       1 <0>        -0.4836 
     24 C18         7.2431   12.4866   -0.7898 C.ar      1 <0>        -0.1096 
     25 C19         8.4261   12.0912   -1.4380 C.ar      1 <0>        -0.0890 
     26 C20         8.4019   11.6928   -2.7699 C.ar      1 <0>        -0.1059 
     27 C21         7.2001   11.6932   -3.4783 C.ar      1 <0>        -0.1641 
     28 C22         6.0212   12.0926   -2.8511 C.ar      1 <0>        -0.1059 
     29 C23         6.0422   12.4795   -1.5148 C.ar      1 <0>        -0.0890 
     30 C24         7.1860   11.3081   -4.9451 C.3       1 <0>         0.0903 
     31 N6          6.7172    9.8550   -5.1935 N.4       1 <0>        -0.4376 
     32 C25         7.7207    8.8252   -4.6193 C.3       1 <0>         0.0630 
     33 C26         7.2061    7.3989   -4.9057 C.3       1 <0>         0.0434 
     34 N7          6.9937    7.1911   -6.3432 N.3       1 <0>        -0.6954 
     35 C27         6.0206    8.1376   -6.9046 C.3       1 <0>         0.0434 
     36 C28         6.4885    9.5943   -6.7001 C.3       1 <0>         0.0630 
     37 C29         6.5663    5.8149   -6.5947 C.3       1 <0>         0.0458 
     38 H1          9.6271   15.0530    6.9901 H         1 <0>         0.0799 
     39 H2          8.9258   13.4819    7.4148 H         1 <0>         0.0799 
     40 H3         10.6342   13.5913    7.0684 H         1 <0>         0.0799 
     41 H4          7.2624   13.3121    5.7668 H         1 <0>         0.1435 
     42 H5          6.6531   12.7553    3.4771 H         1 <0>         0.1347 
     43 H6         10.6876   13.4526    2.2138 H         1 <0>         0.1499 
     44 H7         11.7594   14.6564    5.4292 H         1 <0>         0.3304 
     45 H8         14.1783   11.8522    1.6873 H         1 <0>         0.1672 
     46 H9         16.2339   13.0757    2.3815 H         1 <0>         0.1658 
     47 H10        15.2750   15.9096    6.0840 H         1 <0>         0.1389 
     48 H11        17.2090   17.1983    6.8872 H         1 <0>         0.1495 
     49 H12        19.3669   17.0589    5.6275 H         1 <0>         0.1649 
     50 H13        17.7609   14.4704    2.8634 H         1 <0>         0.1641 
     51 H14         9.1637   12.3715    0.8378 H         1 <0>         0.2943 
     52 H15         9.3858   12.1086   -0.9447 H         1 <0>         0.1639 
     53 H16         9.3295   11.4251   -3.2551 H         1 <0>         0.1383 
     54 H17         5.0885   12.1105   -3.3919 H         1 <0>         0.1383 
     55 H18         5.1156   12.7878   -1.0508 H         1 <0>         0.1639 
     56 H19         6.4891   11.9442   -5.4948 H         1 <0>         0.1213 
     57 H20         8.1746   11.4003   -5.4039 H         1 <0>         0.1213 
     58 H21         8.6996    9.0205   -5.0640 H         1 <0>         0.1304 
     59 H22         7.7587    8.9961   -3.5428 H         1 <0>         0.1304 
     60 H23         7.9169    6.6735   -4.5087 H         1 <0>         0.1029 
     61 H24         6.2478    7.2585   -4.3982 H         1 <0>         0.1029 
     62 H25         5.8720    7.9531   -7.9691 H         1 <0>         0.1029 
     63 H26         5.0683    7.9908   -6.3892 H         1 <0>         0.1029 
     64 H27         5.7081   10.2882   -7.0158 H         1 <0>         0.1304 
     65 H28         7.4213    9.8147   -7.2237 H         1 <0>         0.1304 
     66 H29         5.6183    5.5870   -6.1025 H         1 <0>         0.0847 
     67 H30         6.4455    5.6339   -7.6637 H         1 <0>         0.0847 
     68 H31         7.3139    5.1064   -6.2311 H         1 <0>         0.0847 
     69 H32         5.8352    9.7182   -4.7144 H         1 <0>         0.3021 
@<TRIPOS>BOND
     1    1    2 1    
     2    1   38 1    
     3    1   39 1    
     4    1   40 1    
     5    2    7 ar   
     6    2    3 ar   
     7    3    4 ar   
     8    3   41 1    
     9    4    5 ar   
    10    4   42 1    
    11    5    6 ar   
    12    5   21 1    
    13    6    7 ar   
    14    6   43 1    
    15    7    8 1    
    16    8    9 1    
    17    8   44 1    
    18    9   14 ar   
    19    9   10 ar   
    20   10   11 ar   
    21   11   12 ar   
    22   11   45 1    
    23   12   13 ar   
    24   12   46 1    
    25   13   14 ar   
    26   13   15 1    
    27   15   20 ar   
    28   15   16 ar   
    29   16   17 ar   
    30   16   47 1    
    31   17   18 ar   
    32   17   48 1    
    33   18   19 ar   
    34   18   49 1    
    35   19   20 ar   
    36   20   50 1    
    37   21   22 am   BACKBONE|DICT|INTERRES
    38   21   51 1    
    39   22   23 2    
    40   22   24 1    
    41   24   29 ar   
    42   24   25 ar   
    43   25   26 ar   
    44   25   52 1    
    45   26   27 ar   
    46   26   53 1    
    47   27   28 ar   
    48   27   30 1    
    49   28   29 ar   
    50   28   54 1    
    51   29   55 1    
    52   30   31 1    
    53   30   56 1    
    54   30   57 1    
    55   31   36 1    
    56   31   32 1    
    57   31   69 1    
    58   32   33 1    
    59   32   58 1    
    60   32   59 1    
    61   33   34 1    
    62   33   60 1    
    63   33   61 1    
    64   34   35 1    
    65   34   37 1    
    66   35   36 1    
    67   35   62 1    
    68   35   63 1    
    69   36   64 1    
    70   36   65 1    
    71   37   66 1    
    72   37   67 1    
    73   37   68 1    
@<TRIPOS>SUBSTRUCTURE
     1 <0>         1 GROUP             0       ****    0 ROOT    
@<TRIPOS>MOLECULE
CHEMBL558752
53   57    1
SMALL
USER_CHARGES


@<TRIPOS>ATOM
      1 C1         11.2323   10.7800    1.3931 C.3       1 <0>        -0.0744 
      2 N1         10.9152   11.9561    2.1897 N.pl3     1 <0>        -0.1792 
      3 C2          9.6349   12.3693    2.5005 C.ar      1 <0>         0.1301 
      4 C3          8.3562   11.9045    2.1670 C.ar      1 <0>        -0.2795 
      5 C4          7.2755   12.6411    2.6615 C.ar      1 <0>        -0.1883 
      6 C5          7.4541   13.7767    3.4535 C.ar      1 <0>         0.1106 
      7 C6          8.7313   14.1999    3.8224 C.ar      1 <0>        -0.2711 
      8 C7          9.8294   13.4988    3.3253 C.ar      1 <0>         0.3161 
      9 N2         11.1528   13.7516    3.5202 N.2       1 <0>        -0.5186 
     10 C8         11.7827   12.8084    2.8644 C.ar      1 <0>         0.3740 
     11 N3         13.1535   12.6540    2.8056 N.pl3     1 <0>        -0.6211 
     12 C9         14.1730   13.4701    3.3428 C.ar      1 <0>         0.2688 
     13 C10        13.9729   14.3836    4.3891 C.ar      1 <0>        -0.1848 
     14 C11        15.0219   15.1713    4.8567 C.ar      1 <0>        -0.0428 
     15 C12        16.3000   15.0534    4.2978 C.ar      1 <0>        -0.1314 
     16 C13        16.5054   14.1333    3.2648 C.ar      1 <0>        -0.0428 
     17 C14        15.4524   13.3484    2.7961 C.ar      1 <0>        -0.1848 
     18 C15        17.4825   15.8598    4.8424 C.3       1 <0>         0.4652 
     19 F1         18.4152   15.0380    5.3173 F         1 <0>        -0.1746 
     20 F2         18.0319   16.5906    3.8731 F         1 <0>        -0.1746 
     21 F3         17.1193   16.6732    5.8339 F         1 <0>        -0.1746 
     22 O1          6.3603   14.4967    3.8627 O.3       1 <0>        -0.3050 
     23 C16         6.1552   15.7716    3.3742 C.ar      1 <0>         0.1895 
     24 C17         6.7097   16.2419    2.1716 C.ar      1 <0>        -0.2130 
     25 C18         6.4253   17.5416    1.7611 C.ar      1 <0>         0.0014 
     26 N4          5.6297   18.3778    2.4725 N.ar      1 <0>        -0.2369 
     27 C19         5.0866   17.9206    3.6358 C.ar      1 <0>         0.0919 
     28 C20         5.3285   16.6243    4.1069 C.ar      1 <0>        -0.1611 
     29 C21         4.2232   18.8872    4.3822 C.ar      1 <0>        -0.0670 
     30 N5          3.8462   20.1173    3.9029 N.pl3     1 <0>         0.0742 
     31 H1          4.0857   20.4980    2.9982 H         1 <0>         0.2549 
     32 C22         3.1108   20.7392    4.8767 C.ar      1 <0>        -0.2644 
     33 C23         3.0793   19.7914    5.8950 C.ar      1 <0>        -0.1102 
     34 N6          3.7459   18.6892    5.5916 N.2       1 <0>        -0.0825 
     35 C24         2.5234   22.1247    4.7114 C.3       1 <0>         0.4727 
     36 F4          1.5911   22.1337    3.7579 F         1 <0>        -0.1712 
     37 F5          1.9565   22.5489    5.8403 F         1 <0>        -0.1712 
     38 F6          3.4637   23.0067    4.3712 F         1 <0>        -0.1712 
     39 H2         11.2246    9.9049    2.0425 H         1 <0>         0.0822 
     40 H3         10.4866   10.6509    0.6092 H         1 <0>         0.0822 
     41 H4         12.2045   10.8921    0.9143 H         1 <0>         0.0822 
     42 H5          8.2039   11.0264    1.5548 H         1 <0>         0.1998 
     43 H6          6.2696   12.3332    2.4156 H         1 <0>         0.1588 
     44 H7          8.8655   15.0526    4.4640 H         1 <0>         0.2064 
     45 H8         13.5144   11.8995    2.2393 H         1 <0>         0.3538 
     46 H9         13.0177   14.4882    4.8750 H         1 <0>         0.1474 
     47 H10        14.8358   15.8548    5.6715 H         1 <0>         0.1487 
     48 H11        17.4929   14.0116    2.8424 H         1 <0>         0.1487 
     49 H12        15.6389   12.6492    1.9950 H         1 <0>         0.1474 
     50 H13         7.3329   15.6092    1.5568 H         1 <0>         0.1587 
     51 H14         6.8312   17.9307    0.8380 H         1 <0>         0.1689 
     52 H15         4.8888   16.2761    5.0305 H         1 <0>         0.1661 
     53 H16         2.5807   19.8986    6.8478 H         1 <0>         0.1958 
@<TRIPOS>BOND
     1    1    2 1    
     2    1   39 1    
     3    1   40 1    
     4    1   41 1    
     5    2   10 ar   
     6    2    3 ar   
     7    3    8 ar   
     8    3    4 ar   
     9    4    5 ar   
    10    4   42 1    
    11    5    6 ar   
    12    5   43 1    
    13    6    7 ar   
    14    6   22 1    
    15    7    8 ar   
    16    7   44 1    
    17    8    9 ar   
    18    9   10 ar   
    19   10   11 1    
    20   11   12 1    
    21   11   45 1    
    22   12   17 ar   
    23   12   13 ar   
    24   13   14 ar   
    25   13   46 1    
    26   14   15 ar   
    27   14   47 1    
    28   15   16 ar   
    29   15   18 1    
    30   16   17 ar   
    31   16   48 1    
    32   17   49 1    
    33   18   19 1    
    34   18   20 1    
    35   18   21 1    
    36   22   23 1    
    37   23   28 ar   
    38   23   24 ar   
    39   24   25 ar   
    40   24   50 1    
    41   25   26 ar   
    42   25   51 1    
    43   26   27 ar   
    44   27   28 ar   
    45   27   29 1    
    46   28   52 1    
    47   29   34 ar   
    48   29   30 ar   
    49   30   31 1    
    50   30   32 ar   
    51   32   33 ar   
    52   32   35 1    
    53   33   34 ar   
    54   33   53 1    
    55   35   36 1    
    56   35   37 1    
    57   35   38 1    
@<TRIPOS>SUBSTRUCTURE
     1 <0>         1 GROUP             0       ****    0 ROOT    
@<TRIPOS>MOLECULE
CHEMBL558752
53   57    1
SMALL
USER_CHARGES


@<TRIPOS>ATOM
      1 C1         11.2314   10.7189    1.3696 C.3       1 <0>        -0.0747 
      2 N1         10.9620   11.9017    2.1721 N.pl3     1 <0>        -0.1783 
      3 C2          9.7049   12.3770    2.4861 C.ar      1 <0>         0.1303 
      4 C3          8.4045   11.9865    2.1430 C.ar      1 <0>        -0.2788 
      5 C4          7.3622   12.7567    2.6676 C.ar      1 <0>        -0.1853 
      6 C5          7.5977   13.8592    3.4913 C.ar      1 <0>         0.1110 
      7 C6          8.8950   14.2227    3.8510 C.ar      1 <0>        -0.2742 
      8 C7          9.9575   13.4774    3.3356 C.ar      1 <0>         0.3155 
      9 N2         11.2931   13.6532    3.5392 N.2       1 <0>        -0.5220 
     10 C8         11.8700   12.6907    2.8649 C.ar      1 <0>         0.3736 
     11 N3         13.2242   12.4372    2.8072 N.pl3     1 <0>        -0.6212 
     12 C9         14.3219   13.1943    3.2644 C.ar      1 <0>         0.2695 
     13 C10        14.2101   14.3381    4.0660 C.ar      1 <0>        -0.1850 
     14 C11        15.3429   15.0549    4.4370 C.ar      1 <0>        -0.0427 
     15 C12        16.6103   14.6537    4.0040 C.ar      1 <0>        -0.1317 
     16 C13        16.7290   13.4963    3.2282 C.ar      1 <0>        -0.0427 
     17 C14        15.5924   12.7738    2.8643 C.ar      1 <0>        -0.1850 
     18 C15        17.8637   15.4425    4.3875 C.3       1 <0>         0.4653 
     19 F1         18.7887   14.6253    4.8891 F         1 <0>        -0.1747 
     20 F2         18.3620   16.0367    3.3033 F         1 <0>        -0.1747 
     21 F3         17.6079   16.3818    5.2999 F         1 <0>        -0.1747 
     22 O1          6.5399   14.6013    3.9517 O.3       1 <0>        -0.3078 
     23 C16         6.2742   15.8403    3.4065 C.ar      1 <0>         0.1893 
     24 C17         6.7850   16.2800    2.1738 C.ar      1 <0>        -0.2146 
     25 C18         6.4311   17.5473    1.7133 C.ar      1 <0>         0.0013 
     26 N4          5.6147   18.3794    2.4048 N.ar      1 <0>        -0.2389 
     27 C19         5.1168   17.9509    3.5969 C.ar      1 <0>         0.0980 
     28 C20         5.4261   16.6892    4.1189 C.ar      1 <0>        -0.1621 
     29 C21         4.2285   18.9112    4.3234 C.ar      1 <0>        -0.1037 
     30 N5          3.7664   18.7291    5.5430 N.2       1 <0>        -0.0261 
     31 H1          4.0221   20.4824    2.8984 H         1 <0>         0.2636 
     32 C22         3.0600   19.8100    5.8538 C.ar      1 <0>        -0.1275 
     33 C23         3.0549   20.7055    4.7886 C.ar      1 <0>        -0.2766 
     34 N6          3.8078   20.1137    3.8144 N.pl3     1 <0>         0.0377 
     35 C24         2.3884   19.9218    7.2117 C.3       1 <0>         0.4729 
     36 F4          3.2670   19.7599    8.2025 F         1 <0>        -0.1736 
     37 F5          1.8179   21.1160    7.3743 F         1 <0>        -0.1736 
     38 F6          1.4355   18.9996    7.3544 F         1 <0>        -0.1736 
     39 H2         11.2317    9.8538    2.0300 H         1 <0>         0.0823 
     40 H3         10.4590   10.5979    0.6095 H         1 <0>         0.0823 
     41 H4         12.1929   10.8058    0.8652 H         1 <0>         0.0823 
     42 H5          8.2099   11.1330    1.5096 H         1 <0>         0.2013 
     43 H6          6.3414   12.4973    2.4259 H         1 <0>         0.1650 
     44 H7          9.0718   15.0536    4.5115 H         1 <0>         0.2038 
     45 H8         13.5124   11.5765    2.3606 H         1 <0>         0.3535 
     46 H9         13.2614   14.6999    4.4213 H         1 <0>         0.1474 
     47 H10        15.2227   15.9340    5.0538 H         1 <0>         0.1485 
     48 H11        17.7022   13.1626    2.8940 H         1 <0>         0.1485 
     49 H12        15.7013   11.8942    2.2483 H         1 <0>         0.1474 
     50 H13         7.4290   15.6513    1.5770 H         1 <0>         0.1580 
     51 H14         6.8008   17.9134    0.7667 H         1 <0>         0.1683 
     52 H15         5.0186   16.3645    5.0651 H         1 <0>         0.1655 
     53 H16         2.5999   21.6755    4.6468 H         1 <0>         0.2415 
@<TRIPOS>BOND
     1    1    2 1    
     2    1   39 1    
     3    1   40 1    
     4    1   41 1    
     5    2   10 ar   
     6    2    3 ar   
     7    3    8 ar   
     8    3    4 ar   
     9    4    5 ar   
    10    4   42 1    
    11    5    6 ar   
    12    5   43 1    
    13    6    7 ar   
    14    6   22 1    
    15    7    8 ar   
    16    7   44 1    
    17    8    9 ar   
    18    9   10 ar   
    19   10   11 1    
    20   11   12 1    
    21   11   45 1    
    22   12   17 ar   
    23   12   13 ar   
    24   13   14 ar   
    25   13   46 1    
    26   14   15 ar   
    27   14   47 1    
    28   15   16 ar   
    29   15   18 1    
    30   16   17 ar   
    31   16   48 1    
    32   17   49 1    
    33   18   19 1    
    34   18   20 1    
    35   18   21 1    
    36   22   23 1    
    37   23   28 ar   
    38   23   24 ar   
    39   24   25 ar   
    40   24   50 1    
    41   25   26 ar   
    42   25   51 1    
    43   26   27 ar   
    44   27   28 ar   
    45   27   29 1    
    46   28   52 1    
    47   29   30 ar   
    48   29   34 ar   
    49   30   32 ar   
    50   31   34 1    
    51   32   35 1    
    52   32   33 ar   
    53   33   53 1    
    54   33   34 ar   
    55   35   36 1    
    56   35   37 1    
    57   35   38 1    
@<TRIPOS>SUBSTRUCTURE
     1 <0>         1 GROUP             0       ****    0 ROOT    
@<TRIPOS>MOLECULE
CHEMBL256101
60   64    1
SMALL
USER_CHARGES


@<TRIPOS>ATOM
      1 C1          7.2445   13.0483    3.7945 C.3       1 <0>        -0.1147 
      2 C2          7.8968   12.2466    2.6754 C.ar      1 <0>        -0.0774 
      3 C3          7.1193   11.4401    1.8411 C.ar      1 <0>        -0.0626 
      4 C4          7.6906   10.6869    0.8122 C.ar      1 <0>        -0.0528 
      5 C5          9.0717   10.7265    0.6155 C.ar      1 <0>        -0.0375 
      6 C6          9.8929   11.5177    1.4473 C.ar      1 <0>        -0.1872 
      7 C7          9.3089   12.2991    2.4855 C.ar      1 <0>         0.1448 
      8 N1         10.1091   13.0667    3.2809 N.ar      1 <0>        -0.3664 
      9 C8         11.4407   13.0134    3.0381 C.ar      1 <0>         0.4304 
     10 N2         12.0232   12.2671    2.0669 N.ar      1 <0>        -0.3134 
     11 N3         11.2426   11.5238    1.2656 N.ar      1 <0>         0.1903 
     12 N4         12.2167   13.7536    3.9330 N.pl3     1 <0>        -0.6279 
     13 C9         13.5807   14.0662    4.0383 C.ar      1 <0>         0.2010 
     14 C10        14.5244   13.8554    3.0274 C.ar      1 <0>        -0.1328 
     15 C11        15.8389   14.2706    3.2255 C.ar      1 <0>        -0.1480 
     16 C12        16.2227   14.9061    4.4061 C.ar      1 <0>         0.1338 
     17 C13        15.2733   15.1396    5.4050 C.ar      1 <0>        -0.1480 
     18 C14        13.9798   14.6556    5.2345 C.ar      1 <0>        -0.1328 
     19 O1         17.5787   15.0275    4.5803 O.3       1 <0>        -0.3816 
     20 C15        18.1547   15.7409    5.6645 C.3       1 <0>         0.1071 
     21 C16        19.6233   16.0171    5.2414 C.3       1 <0>        -0.1174 
     22 N5         19.6710   17.0757    4.1406 N.4       1 <0>         0.5363 
     23 O2         19.2301   18.2593    4.6218 O.co2     1 <0>        -0.7076 
     24 C17        18.8808   16.6872    2.8878 C.3       1 <0>        -0.1731 
     25 C18        19.3299   17.7093    1.8769 C.3       1 <0>        -0.1329 
     26 C19        20.8163   17.7596    2.1158 C.3       1 <0>        -0.1329 
     27 C20        21.0724   17.3097    3.5776 C.3       1 <0>        -0.1731 
     28 C21         6.8420    9.8421   -0.0693 C.ar      1 <0>        -0.0260 
     29 C22         6.2241    8.6754    0.4207 C.ar      1 <0>         0.0923 
     30 C23         5.4381    7.8854   -0.4195 C.ar      1 <0>        -0.1233 
     31 C24         5.2548    8.2406   -1.7528 C.ar      1 <0>        -0.1068 
     32 C25         5.8584    9.3915   -2.2499 C.ar      1 <0>        -0.1233 
     33 C26         6.6459   10.1903   -1.4195 C.ar      1 <0>         0.0923 
     34 Cl1         7.3461   11.6239   -2.0961 Cl        1 <0>        -0.1351 
     35 Cl2         6.4225    8.1571    2.0622 Cl        1 <0>        -0.1351 
     36 H1          7.4383   14.1141    3.6651 H         1 <0>         0.0764 
     37 H2          6.1631   12.9014    3.8265 H         1 <0>         0.0764 
     38 H3          7.6516   12.7458    4.7600 H         1 <0>         0.0764 
     39 H4          6.0505   11.3943    1.9931 H         1 <0>         0.1457 
     40 H5          9.5267   10.1347   -0.1667 H         1 <0>         0.1587 
     41 H6         11.6460   14.1871    4.6409 H         1 <0>         0.3261 
     42 H7         14.2629   13.3999    2.0792 H         1 <0>         0.1487 
     43 H8         16.5826   14.0607    2.4729 H         1 <0>         0.1438 
     44 H9         15.5604   15.5558    6.3594 H         1 <0>         0.1438 
     45 H10        13.2820   14.6540    6.0615 H         1 <0>         0.1487 
     46 H11        17.6223   16.6728    5.8640 H         1 <0>         0.0573 
     47 H12        18.1193   15.1429    6.5753 H         1 <0>         0.0573 
     48 H13        20.2204   16.4127    6.0638 H         1 <0>         0.0999 
     49 H14        20.1071   15.1173    4.8559 H         1 <0>         0.0999 
     50 H15        19.1638   15.6663    2.6182 H         1 <0>         0.0950 
     51 H16        17.8201   16.7610    3.0991 H         1 <0>         0.0950 
     52 H17        19.0749   17.4128    0.8655 H         1 <0>         0.0888 
     53 H18        18.8312   18.6529    2.0649 H         1 <0>         0.0888 
     54 H19        21.2318   17.0535    1.4062 H         1 <0>         0.0888 
     55 H20        21.2392   18.7373    1.8957 H         1 <0>         0.0888 
     56 H21        21.5651   18.0636    4.1957 H         1 <0>         0.0950 
     57 H22        21.6137   16.3717    3.6618 H         1 <0>         0.0950 
     58 H23         4.9730    6.9892   -0.0338 H         1 <0>         0.1509 
     59 H24         4.6466    7.6251   -2.3997 H         1 <0>         0.1456 
     60 H25         5.7131    9.6678   -3.2838 H         1 <0>         0.1509 
@<TRIPOS>BOND
     1    1    2 1    
     2    1   36 1    
     3    1   37 1    
     4    1   38 1    
     5    2    7 ar   
     6    2    3 ar   
     7    3    4 ar   
     8    3   39 1    
     9    4    5 ar   
    10    4   28 1    
    11    5    6 ar   
    12    5   40 1    
    13    6   11 ar   
    14    6    7 ar   
    15    7    8 ar   
    16    8    9 ar   
    17    9   10 ar   
    18    9   12 1    
    19   10   11 ar   
    20   12   13 1    
    21   12   41 1    
    22   13   18 ar   
    23   13   14 ar   
    24   14   15 ar   
    25   14   42 1    
    26   15   16 ar   
    27   15   43 1    
    28   16   17 ar   
    29   16   19 1    
    30   17   18 ar   
    31   17   44 1    
    32   18   45 1    
    33   19   20 1    
    34   20   21 1    
    35   20   46 1    
    36   20   47 1    
    37   21   22 1    
    38   21   48 1    
    39   21   49 1    
    40   22   27 1    
    41   22   23 1    
    42   22   24 1    
    43   24   25 1    
    44   24   50 1    
    45   24   51 1    
    46   25   26 1    
    47   25   52 1    
    48   25   53 1    
    49   26   27 1    
    50   26   54 1    
    51   26   55 1    
    52   27   56 1    
    53   27   57 1    
    54   28   33 ar   
    55   28   29 ar   
    56   29   30 ar   
    57   29   35 1    
    58   30   31 ar   
    59   30   58 1    
    60   31   32 ar   
    61   31   59 1    
    62   32   33 ar   
    63   32   60 1    
    64   33   34 1    
@<TRIPOS>SUBSTRUCTURE
     1 <0>         1 GROUP             0       ****    0 ROOT    
@<TRIPOS>MOLECULE
CHEMBL573577
59   62    1
SMALL
USER_CHARGES


@<TRIPOS>ATOM
      1 C1         11.1462    9.2312   -5.8706 C.3       1 <0>        -0.1881 
      2 C2         10.6149    8.3541   -4.7565 C.ar      1 <0>         0.0340 
      3 C3         11.1761    7.1478   -4.3359 C.ar      1 <0>        -0.1506 
      4 N1         10.3820    6.6706   -3.3304 N.pl3     1 <0>         0.1060 
      5 H1         10.5140    5.7631   -2.8968 H         1 <0>         0.2458 
      6 C4          9.3695    7.5339   -3.0316 C.ar      1 <0>        -0.0615 
      7 C5          9.5549    8.6506   -3.8568 C.ar      1 <0>        -0.1197 
      8 C6          8.7361    9.8419   -3.8770 C.2       1 <0>         0.4885 
      9 O1          8.4278   10.4035   -4.9284 O.2       1 <0>        -0.5198 
     10 N2          8.3638   10.2650   -2.6558 N.am      1 <0>        -0.5779 
     11 C7          7.5352   11.4395   -2.3688 C.3       1 <0>         0.0729 
     12 C8          7.9120   12.1390   -1.0417 C.3       1 <0>         0.1743 
     13 C9          6.8985   13.2491   -0.6429 C.3       1 <0>         0.0814 
     14 N3          7.3335   14.1165    0.4641 N.3       1 <0>        -0.7066 
     15 C10         7.5670   13.4382    1.7441 C.3       1 <0>         0.0828 
     16 C11         8.1557   14.4252    2.7791 C.3       1 <0>         0.1304 
     17 O2          7.3638   15.6084    2.8975 O.3       1 <0>        -0.4487 
     18 C12         7.0993   16.2597    1.6541 C.3       1 <0>         0.1304 
     19 C13         6.4707   15.2868    0.6353 C.3       1 <0>         0.0828 
     20 O3          9.2319   12.6537   -1.1356 O.3       1 <0>        -0.6625 
     21 C14         8.3583    7.1752   -1.9619 C.3       1 <0>        -0.1929 
     22 C15        12.4000    6.4600   -4.7455 C.2       1 <0>        -0.0295 
     23 C16        12.8709    5.2000   -4.5793 C.2       1 <0>        -0.0962 
     24 C17        14.1751    4.6727   -4.9680 C.ar      1 <0>        -0.1161 
     25 C18        15.2781    5.2412   -5.6119 C.ar      1 <0>        -0.1134 
     26 C19        16.4236    4.4676   -5.8201 C.ar      1 <0>         0.1844 
     27 C20        16.4634    3.1385   -5.3843 C.ar      1 <0>        -0.1288 
     28 C21        15.3582    2.5757   -4.7379 C.ar      1 <0>        -0.1318 
     29 C22        14.2250    3.3646   -4.5442 C.ar      1 <0>         0.0315 
     30 N4         13.0304    3.0649   -3.9356 N.am      1 <0>        -0.3129 
     31 C23        12.1649    4.0903   -3.9483 C.2       1 <0>         0.4776 
     32 O4         11.0244    4.0408   -3.4935 O.2       1 <0>        -0.5206 
     33 F1         17.4966    5.0072   -6.4417 F         1 <0>        -0.2168 
     34 H2         11.2310   10.2537   -5.5189 H         1 <0>         0.0722 
     35 H3         12.1364    8.9511   -6.2286 H         1 <0>         0.0722 
     36 H4         10.4623    9.2617   -6.7189 H         1 <0>         0.0722 
     37 H5          8.6930    9.7368   -1.8607 H         1 <0>         0.3120 
     38 H6          7.6020   12.1660   -3.1833 H         1 <0>         0.0858 
     39 H7          6.4908   11.1263   -2.3422 H         1 <0>         0.0858 
     40 H8          7.9199   11.3808   -0.2571 H         1 <0>         0.0880 
     41 H9          6.6810   13.8530   -1.5245 H         1 <0>         0.0719 
     42 H10         5.9544   12.7819   -0.3571 H         1 <0>         0.0719 
     43 H11         6.6466   12.9773    2.1063 H         1 <0>         0.0713 
     44 H12         8.2788   12.6241    1.6045 H         1 <0>         0.0713 
     45 H13         8.2261   13.9449    3.7553 H         1 <0>         0.0529 
     46 H14         9.1692   14.6931    2.4789 H         1 <0>         0.0529 
     47 H15         6.4387   17.1094    1.8273 H         1 <0>         0.0529 
     48 H16         8.0254   16.6495    1.2311 H         1 <0>         0.0529 
     49 H17         6.3734   15.8035   -0.3207 H         1 <0>         0.0713 
     50 H18         5.4623   14.9859    0.9249 H         1 <0>         0.0713 
     51 H19         9.4935   12.8105   -2.0602 H         1 <0>         0.4210 
     52 H20         8.7545    7.3469   -0.9620 H         1 <0>         0.0814 
     53 H21         7.4373    7.7508   -2.0500 H         1 <0>         0.0814 
     54 H22         8.0696    6.1248   -2.0128 H         1 <0>         0.0814 
     55 H23        13.0573    7.1281   -5.2814 H         1 <0>         0.1362 
     56 H24        15.2653    6.2673   -5.9460 H         1 <0>         0.1481 
     57 H25        17.3536    2.5487   -5.5456 H         1 <0>         0.1512 
     58 H26        15.3947    1.5511   -4.3969 H         1 <0>         0.1447 
     59 H27        12.8308    2.2185   -3.4232 H         1 <0>         0.2972 
@<TRIPOS>BOND
     1    1    2 1    
     2    1   34 1    
     3    1   35 1    
     4    1   36 1    
     5    2    7 ar   
     6    2    3 ar   
     7    3    4 ar   
     8    3   22 1    
     9    4    5 1    
    10    4    6 ar   
    11    6    7 ar   
    12    6   21 1    
    13    7    8 1    
    14    8    9 2    
    15    8   10 am   BACKBONE|DICT|INTERRES
    16   10   11 1    
    17   10   37 1    
    18   11   12 1    
    19   11   38 1    
    20   11   39 1    
    21   12   13 1    
    22   12   20 1    
    23   12   40 1    
    24   13   14 1    
    25   13   41 1    
    26   13   42 1    
    27   14   19 1    
    28   14   15 1    
    29   15   16 1    
    30   15   43 1    
    31   15   44 1    
    32   16   17 1    
    33   16   45 1    
    34   16   46 1    
    35   17   18 1    
    36   18   19 1    
    37   18   47 1    
    38   18   48 1    
    39   19   49 1    
    40   19   50 1    
    41   20   51 1    
    42   21   52 1    
    43   21   53 1    
    44   21   54 1    
    45   22   23 2    
    46   22   55 1    
    47   23   31 1    
    48   23   24 1    
    49   24   29 ar   
    50   24   25 ar   
    51   25   26 ar   
    52   25   56 1    
    53   26   27 ar   
    54   26   33 1    
    55   27   28 ar   
    56   27   57 1    
    57   28   29 ar   
    58   28   58 1    
    59   29   30 1    
    60   30   31 am   BACKBONE|DICT|INTERRES
    61   30   59 1    
    62   31   32 2    
@<TRIPOS>SUBSTRUCTURE
     1 <0>         1 GROUP             0       ****    0 ROOT    
@<TRIPOS>MOLECULE
CHEMBL573577
60   63    1
SMALL
USER_CHARGES


@<TRIPOS>ATOM
      1 C1         11.4783    9.2971   -5.0688 C.3       1 <0>        -0.1893 
      2 C2         10.8177    8.0943   -4.4243 C.ar      1 <0>         0.0267 
      3 C3         11.4417    6.8687   -4.1894 C.ar      1 <0>        -0.1261 
      4 N1         10.4858    6.0206   -3.7076 N.pl3     1 <0>         0.1236 
      5 H1         10.6562    5.0419   -3.5030 H         1 <0>         0.2493 
      6 C4          9.2801    6.6458   -3.5727 C.ar      1 <0>        -0.0753 
      7 C5          9.4803    7.9836   -3.9454 C.ar      1 <0>        -0.1352 
      8 C6          8.4710    9.0263   -3.9030 C.2       1 <0>         0.4936 
      9 O1          7.2682    8.7687   -3.8404 O.2       1 <0>        -0.5157 
     10 N2          8.9493   10.2834   -3.8401 N.am      1 <0>        -0.5804 
     11 C7          8.1339   11.4667   -3.5644 C.3       1 <0>         0.0877 
     12 C8          8.0084   11.7401   -2.0476 C.3       1 <0>         0.1599 
     13 C9          6.8315   12.6789   -1.6937 C.3       1 <0>        -0.0007 
     14 N3          6.8958   13.1329   -0.2111 N.4       1 <0>        -0.4401 
     15 C10         6.6787   11.9671    0.7842 C.3       1 <0>         0.0432 
     16 C11         6.7425   12.5151    2.2239 C.3       1 <0>         0.0749 
     17 O2          5.8374   13.6021    2.4082 O.3       1 <0>        -0.4047 
     18 C12         6.0269   14.7135    1.5367 C.3       1 <0>         0.0749 
     19 C13         5.9101   14.2915    0.0588 C.3       1 <0>         0.0432 
     20 O3          9.2316   12.2565   -1.5355 O.3       1 <0>        -0.6503 
     21 C14         8.1003    5.8600   -3.0344 C.3       1 <0>        -0.1897 
     22 C15        12.8440    6.4708   -4.3034 C.2       1 <0>        -0.0585 
     23 C16        13.4888    5.2787   -4.3359 C.2       1 <0>        -0.0673 
     24 C17        14.9297    5.0445   -4.3505 C.ar      1 <0>        -0.1290 
     25 C18        16.0336    5.9028   -4.3394 C.ar      1 <0>        -0.1105 
     26 C19        17.3210    5.3598   -4.3087 C.ar      1 <0>         0.1880 
     27 C20        17.5007    3.9726   -4.2966 C.ar      1 <0>        -0.1202 
     28 C21        16.3934    3.1195   -4.3091 C.ar      1 <0>        -0.1279 
     29 C22        15.1177    3.6814   -4.3338 C.ar      1 <0>         0.0323 
     30 N4         13.8845    3.0758   -4.3249 N.am      1 <0>        -0.3065 
     31 C23        12.8705    3.9561   -4.3359 C.2       1 <0>         0.4755 
     32 O4         11.6820    3.6422   -4.3414 O.2       1 <0>        -0.5234 
     33 F1         18.3961    6.1778   -4.2817 F         1 <0>        -0.2108 
     34 H2         11.6326   10.0999   -4.3461 H         1 <0>         0.0741 
     35 H3         12.4278    9.0535   -5.5459 H         1 <0>         0.0741 
     36 H4         10.8479    9.7208   -5.8503 H         1 <0>         0.0741 
     37 H5          9.9336   10.4421   -4.0069 H         1 <0>         0.3243 
     38 H6          8.5712   12.3295   -4.0709 H         1 <0>         0.0987 
     39 H7          7.1427   11.3561   -4.0106 H         1 <0>         0.0987 
     40 H8          7.8204   10.7808   -1.5624 H         1 <0>         0.0863 
     41 H9          6.8319   13.5773   -2.3118 H         1 <0>         0.1328 
     42 H10         5.8653   12.1850   -1.8142 H         1 <0>         0.1328 
     43 H11         5.7172   11.5029    0.5580 H         1 <0>         0.1355 
     44 H12         7.4850   11.2480    0.6311 H         1 <0>         0.1355 
     45 H13         6.5058   11.7283    2.9417 H         1 <0>         0.0937 
     46 H14         7.7593   12.8460    2.4431 H         1 <0>         0.0937 
     47 H15         5.2876   15.4791    1.7748 H         1 <0>         0.0937 
     48 H16         7.0099   15.1527    1.7161 H         1 <0>         0.0937 
     49 H17         6.1939   15.1167   -0.5967 H         1 <0>         0.1355 
     50 H18         4.9075   13.9416   -0.1951 H         1 <0>         0.1355 
     51 H19         9.7711   12.6538   -2.2554 H         1 <0>         0.4373 
     52 H20         8.2909    5.5016   -2.0220 H         1 <0>         0.0780 
     53 H21         7.1768    6.4349   -2.9908 H         1 <0>         0.0780 
     54 H22         7.8914    4.9822   -3.6467 H         1 <0>         0.0780 
     55 H23        13.4836    7.3392   -4.3569 H         1 <0>         0.1402 
     56 H24        15.9137    6.9758   -4.3363 H         1 <0>         0.1476 
     57 H25        18.4990    3.5626   -4.2675 H         1 <0>         0.1573 
     58 H26        16.5364    2.0491   -4.2865 H         1 <0>         0.1496 
     59 H27        13.7319    2.0807   -4.2716 H         1 <0>         0.3004 
     60 H28         7.8348   13.4777   -0.0508 H         1 <0>         0.3099 
@<TRIPOS>BOND
     1    1    2 1    
     2    1   34 1    
     3    1   35 1    
     4    1   36 1    
     5    2    7 ar   
     6    2    3 ar   
     7    3    4 ar   
     8    3   22 1    
     9    4    5 1    
    10    4    6 ar   
    11    6    7 ar   
    12    6   21 1    
    13    7    8 1    
    14    8    9 2    
    15    8   10 am   BACKBONE|DICT|INTERRES
    16   10   11 1    
    17   10   37 1    
    18   11   12 1    
    19   11   38 1    
    20   11   39 1    
    21   12   13 1    
    22   12   20 1    
    23   12   40 1    
    24   13   14 1    
    25   13   41 1    
    26   13   42 1    
    27   14   19 1    
    28   14   15 1    
    29   14   60 1    
    30   15   16 1    
    31   15   43 1    
    32   15   44 1    
    33   16   17 1    
    34   16   45 1    
    35   16   46 1    
    36   17   18 1    
    37   18   19 1    
    38   18   47 1    
    39   18   48 1    
    40   19   49 1    
    41   19   50 1    
    42   20   51 1    
    43   21   52 1    
    44   21   53 1    
    45   21   54 1    
    46   22   23 2    
    47   22   55 1    
    48   23   31 1    
    49   23   24 1    
    50   24   29 ar   
    51   24   25 ar   
    52   25   26 ar   
    53   25   56 1    
    54   26   27 ar   
    55   26   33 1    
    56   27   28 ar   
    57   27   57 1    
    58   28   29 ar   
    59   28   58 1    
    60   29   30 1    
    61   30   31 am   BACKBONE|DICT|INTERRES
    62   30   59 1    
    63   31   32 2    
@<TRIPOS>SUBSTRUCTURE
     1 <0>         1 GROUP             0       ****    0 ROOT    
@<TRIPOS>MOLECULE
CHEMBL573577
59   62    1
SMALL
USER_CHARGES


@<TRIPOS>ATOM
      1 C1         10.0101    9.8985   -4.1130 C.3       1 <0>        -0.1879 
      2 C2          9.6957    8.5643   -3.4576 C.ar      1 <0>         0.0325 
      3 C3         10.3752    7.3599   -3.6914 C.ar      1 <0>        -0.1512 
      4 N1          9.7770    6.4156   -2.9085 N.pl3     1 <0>         0.1036 
      5 H1         10.0608    5.4396   -2.9014 H         1 <0>         0.2458 
      6 C4          8.8325    6.9512   -2.0899 C.ar      1 <0>        -0.0600 
      7 C5          8.8352    8.3252   -2.3523 C.ar      1 <0>        -0.1195 
      8 C6          8.0327    9.3027   -1.6616 C.2       1 <0>         0.4939 
      9 O1          7.4002   10.1775   -2.2528 O.2       1 <0>        -0.5080 
     10 N2          8.0272    9.1270   -0.3303 N.am      1 <0>        -0.5828 
     11 C7          7.1996    9.8511    0.6335 C.3       1 <0>         0.0708 
     12 C8          7.7492   11.2285    1.0642 C.3       1 <0>         0.1793 
     13 C9          6.7766   11.9193    2.0578 C.3       1 <0>         0.0818 
     14 N3          7.2385   13.2145    2.5726 N.3       1 <0>        -0.7171 
     15 C10         6.4045   13.6734    3.6893 C.3       1 <0>         0.0843 
     16 C11         6.9130   15.0193    4.2509 C.3       1 <0>         0.1304 
     17 O2          7.0185   16.0003    3.2195 O.3       1 <0>        -0.4474 
     18 C12         7.8294   15.5825    2.1238 C.3       1 <0>         0.1304 
     19 C13         7.3473   14.2442    1.5315 C.3       1 <0>         0.0843 
     20 O3          9.0246   11.0594    1.6654 O.3       1 <0>        -0.6438 
     21 C14         8.0904    6.0693   -1.1063 C.3       1 <0>        -0.1950 
     22 C15        11.5357    7.0354   -4.5301 C.2       1 <0>        -0.0293 
     23 C16        12.2787    5.9116   -4.7243 C.2       1 <0>        -0.0967 
     24 C17        13.4973    5.7653   -5.5190 C.ar      1 <0>        -0.1160 
     25 C18        14.2236    6.6514   -6.3185 C.ar      1 <0>        -0.1136 
     26 C19        15.4015    6.2131   -6.9340 C.ar      1 <0>         0.1842 
     27 C20        15.8474    4.9014   -6.7468 C.ar      1 <0>        -0.1288 
     28 C21        15.1189    4.0189   -5.9457 C.ar      1 <0>        -0.1318 
     29 C22        13.9469    4.4760   -5.3463 C.ar      1 <0>         0.0317 
     30 N4         13.0652    3.8190   -4.5265 N.am      1 <0>        -0.3130 
     31 C23        12.0317    4.5870   -4.1547 C.2       1 <0>         0.4776 
     32 O4         11.0984    4.1829   -3.4670 O.2       1 <0>        -0.5200 
     33 F1         16.1182    7.0562   -7.7105 F         1 <0>        -0.2170 
     34 H2          9.8063   10.7496   -3.4632 H         1 <0>         0.0719 
     35 H3         11.0624    9.9910   -4.3802 H         1 <0>         0.0719 
     36 H4          9.4376   10.0426   -5.0280 H         1 <0>         0.0719 
     37 H5          8.7444    8.5248    0.0616 H         1 <0>         0.3028 
     38 H6          6.1798    9.9491    0.2569 H         1 <0>         0.0878 
     39 H7          7.1174    9.2123    1.5137 H         1 <0>         0.0878 
     40 H8          7.8754   11.8325    0.1649 H         1 <0>         0.0654 
     41 H9          5.8042   12.0525    1.5795 H         1 <0>         0.0744 
     42 H10         6.6074   11.2401    2.8962 H         1 <0>         0.0744 
     43 H11         5.3637   13.7607    3.3712 H         1 <0>         0.0726 
     44 H12         6.4153   12.9231    4.4822 H         1 <0>         0.0726 
     45 H13         6.2426   15.3847    5.0287 H         1 <0>         0.0520 
     46 H14         7.8895   14.8665    4.7137 H         1 <0>         0.0520 
     47 H15         7.8260   16.3539    1.3542 H         1 <0>         0.0520 
     48 H16         8.8566   15.4588    2.4672 H         1 <0>         0.0520 
     49 H17         8.0537   13.9248    0.7644 H         1 <0>         0.0726 
     50 H18         6.3879   14.3727    1.0249 H         1 <0>         0.0726 
     51 H19         8.9205   10.4981    2.4412 H         1 <0>         0.4168 
     52 H20         8.6943    5.8709   -0.2199 H         1 <0>         0.0827 
     53 H21         7.1591    6.5218   -0.7673 H         1 <0>         0.0827 
     54 H22         7.8278    5.1025   -1.5388 H         1 <0>         0.0827 
     55 H23        11.8747    7.9088   -5.0670 H         1 <0>         0.1356 
     56 H24        13.8886    7.6668   -6.4604 H         1 <0>         0.1479 
     57 H25        16.7584    4.5726   -7.2231 H         1 <0>         0.1512 
     58 H26        15.4682    3.0078   -5.8004 H         1 <0>         0.1447 
     59 H27        13.1640    2.8674   -4.2086 H         1 <0>         0.2972 
@<TRIPOS>BOND
     1    1    2 1    
     2    1   34 1    
     3    1   35 1    
     4    1   36 1    
     5    2    7 ar   
     6    2    3 ar   
     7    3    4 ar   
     8    3   22 1    
     9    4    5 1    
    10    4    6 ar   
    11    6    7 ar   
    12    6   21 1    
    13    7    8 1    
    14    8    9 2    
    15    8   10 am   BACKBONE|DICT|INTERRES
    16   10   11 1    
    17   10   37 1    
    18   11   12 1    
    19   11   38 1    
    20   11   39 1    
    21   12   13 1    
    22   12   20 1    
    23   12   40 1    
    24   13   14 1    
    25   13   41 1    
    26   13   42 1    
    27   14   19 1    
    28   14   15 1    
    29   15   16 1    
    30   15   43 1    
    31   15   44 1    
    32   16   17 1    
    33   16   45 1    
    34   16   46 1    
    35   17   18 1    
    36   18   19 1    
    37   18   47 1    
    38   18   48 1    
    39   19   49 1    
    40   19   50 1    
    41   20   51 1    
    42   21   52 1    
    43   21   53 1    
    44   21   54 1    
    45   22   23 2    
    46   22   55 1    
    47   23   31 1    
    48   23   24 1    
    49   24   29 ar   
    50   24   25 ar   
    51   25   26 ar   
    52   25   56 1    
    53   26   27 ar   
    54   26   33 1    
    55   27   28 ar   
    56   27   57 1    
    57   28   29 ar   
    58   28   58 1    
    59   29   30 1    
    60   30   31 am   BACKBONE|DICT|INTERRES
    61   30   59 1    
    62   31   32 2    
@<TRIPOS>SUBSTRUCTURE
     1 <0>         1 GROUP             0       ****    0 ROOT    
@<TRIPOS>MOLECULE
CHEMBL573577
60   63    1
SMALL
USER_CHARGES


@<TRIPOS>ATOM
      1 C1         10.2128   14.6263    4.8056 C.3       1 <0>        -0.1888 
      2 C2         10.6493   13.6007    3.7744 C.ar      1 <0>         0.0241 
      3 C3         11.9742   13.3805    3.3837 C.ar      1 <0>        -0.1273 
      4 N1         11.9442   12.3495    2.4820 N.pl3     1 <0>         0.1191 
      5 H1         12.7765   11.9496    2.0543 H         1 <0>         0.2493 
      6 C4         10.6634   11.9444    2.2188 C.ar      1 <0>        -0.0727 
      7 C5          9.8165   12.7588    2.9821 C.ar      1 <0>        -0.1338 
      8 C6          8.3653   12.8215    2.9234 C.2       1 <0>         0.4967 
      9 O1          7.7823   13.9001    3.0334 O.2       1 <0>        -0.4928 
     10 N2          7.7179   11.6563    2.7257 N.am      1 <0>        -0.5878 
     11 C7          6.2570   11.5306    2.5657 C.3       1 <0>         0.0883 
     12 C8          5.5819   10.4084    3.4019 C.3       1 <0>         0.1647 
     13 C9          4.0307   10.4584    3.3125 C.3       1 <0>        -0.0039 
     14 N3          3.4133    9.0933    3.7297 N.4       1 <0>        -0.4355 
     15 C10         2.7123    8.4039    2.5367 C.3       1 <0>         0.0426 
     16 C11         2.1553    7.0393    2.9856 C.3       1 <0>         0.0743 
     17 O2          1.3089    7.1940    4.1215 O.3       1 <0>        -0.4050 
     18 C12         1.9491    7.7464    5.2691 C.3       1 <0>         0.0743 
     19 C13         2.5171    9.1551    4.9896 C.3       1 <0>         0.0426 
     20 O3          6.0316    9.1509    2.9237 O.3       1 <0>        -0.6291 
     21 C14        10.4232   10.7983    1.2633 C.3       1 <0>        -0.1929 
     22 C15        13.2192   14.0261    3.8289 C.2       1 <0>        -0.0581 
     23 C16        14.5320   13.9200    3.4992 C.2       1 <0>        -0.0680 
     24 C17        15.6702   14.6503    4.0635 C.ar      1 <0>        -0.1290 
     25 C18        15.7868   15.6064    5.0745 C.ar      1 <0>        -0.1109 
     26 C19        17.0535   16.0961    5.4124 C.ar      1 <0>         0.1874 
     27 C20        18.1910   15.6265    4.7513 C.ar      1 <0>        -0.1203 
     28 C21        18.0746   14.6545    3.7544 C.ar      1 <0>        -0.1280 
     29 C22        16.8031   14.1786    3.4373 C.ar      1 <0>         0.0330 
     30 N4         16.4320   13.2043    2.5507 N.am      1 <0>        -0.3070 
     31 C23        15.1044   13.0287    2.4948 C.2       1 <0>         0.4752 
     32 O4         14.5549   12.2543    1.7196 O.2       1 <0>        -0.5215 
     33 F1         17.1815   17.0299    6.3745 F         1 <0>        -0.2113 
     34 H2         10.1524   14.1852    5.8001 H         1 <0>         0.0735 
     35 H3         10.8979   15.4670    4.8580 H         1 <0>         0.0735 
     36 H4          9.2389   15.0511    4.5866 H         1 <0>         0.0735 
     37 H5          8.2683   10.8076    2.6939 H         1 <0>         0.3116 
     38 H6          5.7490   12.4748    2.7837 H         1 <0>         0.0998 
     39 H7          6.0629   11.3607    1.5049 H         1 <0>         0.0998 
     40 H8          5.8771   10.5135    4.4490 H         1 <0>         0.0602 
     41 H9          3.6112   11.2212    3.9770 H         1 <0>         0.1353 
     42 H10         3.6894   10.6833    2.3001 H         1 <0>         0.1353 
     43 H11         1.9252    9.0707    2.1802 H         1 <0>         0.1387 
     44 H12         3.4742    8.2679    1.7687 H         1 <0>         0.1387 
     45 H13         1.5822    6.5738    2.1810 H         1 <0>         0.0929 
     46 H14         2.9810    6.3673    3.2269 H         1 <0>         0.0929 
     47 H15         1.2340    7.7772    6.0895 H         1 <0>         0.0929 
     48 H16         2.7605    7.0818    5.5742 H         1 <0>         0.0929 
     49 H17         3.1483    9.4735    5.8248 H         1 <0>         0.1387 
     50 H18         1.7307    9.8936    4.8116 H         1 <0>         0.1387 
     51 H19         6.9594    9.0481    3.1978 H         1 <0>         0.4321 
     52 H20        10.4969    9.8572    1.7989 H         1 <0>         0.0800 
     53 H21         9.4458   10.8260    0.7826 H         1 <0>         0.0800 
     54 H22        11.1630   10.7584    0.4681 H         1 <0>         0.0800 
     55 H23        13.0148   14.7513    4.6018 H         1 <0>         0.1390 
     56 H24        14.9208   15.9779    5.6016 H         1 <0>         0.1470 
     57 H25        19.1656   16.0045    5.0224 H         1 <0>         0.1571 
     58 H26        18.9613   14.2832    3.2598 H         1 <0>         0.1497 
     59 H27        17.0783   12.6998    1.9660 H         1 <0>         0.3006 
     60 H28         4.1962    8.4927    3.9670 H         1 <0>         0.2972 
@<TRIPOS>BOND
     1    1    2 1    
     2    1   34 1    
     3    1   35 1    
     4    1   36 1    
     5    2    7 ar   
     6    2    3 ar   
     7    3    4 ar   
     8    3   22 1    
     9    4    5 1    
    10    4    6 ar   
    11    6    7 ar   
    12    6   21 1    
    13    7    8 1    
    14    8    9 2    
    15    8   10 am   BACKBONE|DICT|INTERRES
    16   10   11 1    
    17   10   37 1    
    18   11   12 1    
    19   11   38 1    
    20   11   39 1    
    21   12   13 1    
    22   12   20 1    
    23   12   40 1    
    24   13   14 1    
    25   13   41 1    
    26   13   42 1    
    27   14   19 1    
    28   14   15 1    
    29   14   60 1    
    30   15   16 1    
    31   15   43 1    
    32   15   44 1    
    33   16   17 1    
    34   16   45 1    
    35   16   46 1    
    36   17   18 1    
    37   18   19 1    
    38   18   47 1    
    39   18   48 1    
    40   19   49 1    
    41   19   50 1    
    42   20   51 1    
    43   21   52 1    
    44   21   53 1    
    45   21   54 1    
    46   22   23 2    
    47   22   55 1    
    48   23   31 1    
    49   23   24 1    
    50   24   29 ar   
    51   24   25 ar   
    52   25   26 ar   
    53   25   56 1    
    54   26   27 ar   
    55   26   33 1    
    56   27   28 ar   
    57   27   57 1    
    58   28   29 ar   
    59   28   58 1    
    60   29   30 1    
    61   30   31 am   BACKBONE|DICT|INTERRES
    62   30   59 1    
    63   31   32 2    
@<TRIPOS>SUBSTRUCTURE
     1 <0>         1 GROUP             0       ****    0 ROOT    
@<TRIPOS>MOLECULE
CHEMBL1171247
70   74    1
SMALL
USER_CHARGES


@<TRIPOS>ATOM
      1 C1          6.5357   13.3566    3.5468 C.3       1 <0>        -0.1329 
      2 C2          8.0499   13.2780    3.3690 C.ar      1 <0>        -0.0314 
      3 C3          8.8539   14.2117    4.0276 C.ar      1 <0>        -0.1330 
      4 C4         10.2433   14.1679    3.9152 C.ar      1 <0>        -0.0861 
      5 C5         10.8667   13.1839    3.1297 C.ar      1 <0>        -0.1796 
      6 C6         10.0516   12.2531    2.4658 C.ar      1 <0>        -0.0749 
      7 C7          8.6600   12.2887    2.5765 C.ar      1 <0>         0.0810 
      8 C8          7.8918   11.2718    1.8658 C.1       1 <0>        -0.1503 
      9 C9          7.2760   10.3756    1.3094 C.1       1 <0>        -0.1321 
     10 C10         6.5616    9.2648    0.7021 C.ar      1 <0>         0.0189 
     11 C11         5.1948    9.0764    0.9477 C.ar      1 <0>        -0.0575 
     12 C12         4.5577    7.9904    0.3510 C.ar      1 <0>         0.0727 
     13 C13         5.2982    7.1144   -0.4442 C.ar      1 <0>         0.1246 
     14 N1          6.6206    7.2770   -0.6990 N.ar      1 <0>        -0.2806 
     15 C14         7.2318    8.3486   -0.1229 C.ar      1 <0>         0.0235 
     16 N2          4.6525    6.0392   -1.0410 N.am      1 <0>        -0.3160 
     17 C15         3.3161    5.8670   -1.1084 C.2       1 <0>         0.4504 
     18 O1          2.7892    4.8629   -1.5796 O.2       1 <0>        -0.4801 
     19 C16         2.5342    7.0815   -0.5156 C.3       1 <0>         0.0997 
     20 O2          3.2189    7.7404    0.5803 O.3       1 <0>        -0.3481 
     21 C17        12.3709   13.1061    2.9584 C.2       1 <0>         0.5569 
     22 O3         12.8335   12.2538    2.2037 O.2       1 <0>        -0.4878 
     23 N3         13.1231   14.0064    3.6399 N.am      1 <0>        -0.4111 
     24 C18        14.5269   14.1820    3.6306 C.ar      1 <0>         0.0551 
     25 C19        15.3937   13.5051    2.7618 C.ar      1 <0>        -0.0906 
     26 C20        16.7679   13.6277    2.9000 C.ar      1 <0>        -0.1337 
     27 C21        17.3230   14.4265    3.8984 C.ar      1 <0>        -0.0547 
     28 C22        16.4688   15.1558    4.7611 C.ar      1 <0>        -0.0701 
     29 C23        15.0764   15.0533    4.5804 C.ar      1 <0>        -0.0748 
     30 C24        17.0098   15.8887    5.9996 C.3       1 <0>         0.4657 
     31 F1         16.0455   16.2260    6.8432 F         1 <0>        -0.1721 
     32 F2         17.8425   15.0862    6.6732 F         1 <0>        -0.1721 
     33 F3         17.6332   17.0177    5.6641 F         1 <0>        -0.1721 
     34 C25        18.8247   14.2603    4.1260 C.3       1 <0>         0.1404 
     35 N4         19.5718   15.4796    4.4469 N.3       1 <0>        -0.6924 
     36 C26        19.7466   16.3593    3.2862 C.3       1 <0>         0.0458 
     37 C27        20.3643   17.7089    3.7075 C.3       1 <0>         0.0644 
     38 N5         21.6680   17.5037    4.5206 N.4       1 <0>        -0.4468 
     39 C28        21.4800   16.4782    5.6676 C.3       1 <0>         0.0644 
     40 C29        20.8429   15.1801    5.1210 C.3       1 <0>         0.0458 
     41 C30        22.1815   18.8559    5.0728 C.3       1 <0>        -0.0081 
     42 H1          6.1495   12.4029    3.9100 H         1 <0>         0.0805 
     43 H2          6.2361   14.1246    4.2601 H         1 <0>         0.0805 
     44 H3          6.0526   13.5600    2.5910 H         1 <0>         0.0805 
     45 H4          8.3939   14.9775    4.6329 H         1 <0>         0.1457 
     46 H5         10.8152   14.9141    4.4461 H         1 <0>         0.1406 
     47 H6         10.5042   11.4792    1.8575 H         1 <0>         0.1437 
     48 H7          4.6397    9.7485    1.5875 H         1 <0>         0.1666 
     49 H8          8.2905    8.4533   -0.3266 H         1 <0>         0.1726 
     50 H9          5.2021    5.2740   -1.4004 H         1 <0>         0.3020 
     51 H10         2.4321    7.7937   -1.3369 H         1 <0>         0.0922 
     52 H11         1.5370    6.7546   -0.2152 H         1 <0>         0.0922 
     53 H12        12.6245   14.6150    4.2656 H         1 <0>         0.3141 
     54 H13        15.0435   12.8461    1.9848 H         1 <0>         0.1553 
     55 H14        17.4073   13.0410    2.2582 H         1 <0>         0.1344 
     56 H15        14.4139   15.5701    5.2602 H         1 <0>         0.1665 
     57 H16        18.8354   13.5672    4.9679 H         1 <0>         0.0908 
     58 H17        19.2869   13.7617    3.2715 H         1 <0>         0.0908 
     59 H18        20.4194   15.8573    2.5915 H         1 <0>         0.1038 
     60 H19        18.7978   16.5334    2.7740 H         1 <0>         0.1038 
     61 H20        20.6668   18.2527    2.8120 H         1 <0>         0.1324 
     62 H21        19.6777   18.2973    4.3196 H         1 <0>         0.1324 
     63 H22        22.4813   16.2723    6.0569 H         1 <0>         0.1324 
     64 H23        20.8676   16.9404    6.4476 H         1 <0>         0.1324 
     65 H24        20.6921   14.4872    5.9516 H         1 <0>         0.1038 
     66 H25        21.5083   14.7036    4.3979 H         1 <0>         0.1038 
     67 H26        21.3905   19.2927    5.6853 H         1 <0>         0.1258 
     68 H27        23.0580   18.6476    5.6851 H         1 <0>         0.1258 
     69 H28        22.4432   19.5151    4.2404 H         1 <0>         0.1258 
     70 H29        22.3451   17.0950    3.8899 H         1 <0>         0.3077 
@<TRIPOS>BOND
     1    1    2 1    
     2    1   42 1    
     3    1   43 1    
     4    1   44 1    
     5    2    7 ar   
     6    2    3 ar   
     7    3    4 ar   
     8    3   45 1    
     9    4    5 ar   
    10    4   46 1    
    11    5    6 ar   
    12    5   21 1    
    13    6    7 ar   
    14    6   47 1    
    15    7    8 1    
    16    8    9 3    
    17    9   10 1    
    18   10   15 ar   
    19   10   11 ar   
    20   11   12 ar   
    21   11   48 1    
    22   12   20 1    
    23   12   13 ar   
    24   13   14 ar   
    25   13   16 1    
    26   14   15 ar   
    27   15   49 1    
    28   16   17 am   BACKBONE|DICT|INTERRES
    29   16   50 1    
    30   17   18 2    
    31   17   19 1    
    32   19   20 1    
    33   19   51 1    
    34   19   52 1    
    35   21   22 2    
    36   21   23 am   BACKBONE|DICT|INTERRES
    37   23   24 1    
    38   23   53 1    
    39   24   29 ar   
    40   24   25 ar   
    41   25   26 ar   
    42   25   54 1    
    43   26   27 ar   
    44   26   55 1    
    45   27   28 ar   
    46   27   34 1    
    47   28   29 ar   
    48   28   30 1    
    49   29   56 1    
    50   30   31 1    
    51   30   32 1    
    52   30   33 1    
    53   34   35 1    
    54   34   57 1    
    55   34   58 1    
    56   35   40 1    
    57   35   36 1    
    58   36   37 1    
    59   36   59 1    
    60   36   60 1    
    61   37   38 1    
    62   37   61 1    
    63   37   62 1    
    64   38   39 1    
    65   38   41 1    
    66   38   70 1    
    67   39   40 1    
    68   39   63 1    
    69   39   64 1    
    70   40   65 1    
    71   40   66 1    
    72   41   67 1    
    73   41   68 1    
    74   41   69 1    
@<TRIPOS>SUBSTRUCTURE
     1 <0>         1 GROUP             0       ****    0 ROOT    
@<TRIPOS>MOLECULE
CHEMBL1171247
70   74    1
SMALL
USER_CHARGES


@<TRIPOS>ATOM
      1 C1         15.1432   12.2732    1.8857 C.3       1 <0>        -0.1339 
      2 C2         13.8492   12.7601    2.5352 C.ar      1 <0>        -0.0279 
      3 C3         12.6437   12.2535    2.0586 C.ar      1 <0>        -0.1313 
      4 C4         11.4245   12.6150    2.6088 C.ar      1 <0>        -0.0867 
      5 C5         11.3754   13.5082    3.6846 C.ar      1 <0>        -0.1841 
      6 C6         12.5834   14.0709    4.1354 C.ar      1 <0>        -0.0748 
      7 C7         13.8119   13.7207    3.5598 C.ar      1 <0>         0.0860 
      8 C8         15.0213   14.3912    4.0173 C.1       1 <0>        -0.1593 
      9 C9         16.0461   14.9761    4.3279 C.1       1 <0>        -0.1220 
     10 C10        17.2318   15.7307    4.6839 C.ar      1 <0>         0.0141 
     11 C11        18.4277   15.6043    3.9612 C.ar      1 <0>        -0.0568 
     12 C12        19.4914   16.4402    4.2991 C.ar      1 <0>         0.0729 
     13 C13        19.3378   17.3492    5.3422 C.ar      1 <0>         0.1268 
     14 N1         18.1982   17.4688    6.0637 N.ar      1 <0>        -0.2789 
     15 C14        17.1663   16.6537    5.7330 C.ar      1 <0>         0.0245 
     16 N2         20.3928   18.1927    5.6633 N.am      1 <0>        -0.3161 
     17 C15        21.5073   18.3682    4.9304 C.2       1 <0>         0.4502 
     18 O1         22.4569   19.0531    5.2938 O.2       1 <0>        -0.4779 
     19 C16        21.4472   17.5962    3.5840 C.3       1 <0>         0.0994 
     20 O2         20.7093   16.3495    3.6599 O.3       1 <0>        -0.3479 
     21 C17        10.0724   13.8348    4.3807 C.2       1 <0>         0.5600 
     22 O3         10.0556   14.6532    5.2953 O.2       1 <0>        -0.4831 
     23 N3          8.9804   13.1333    4.0027 N.am      1 <0>        -0.4254 
     24 C18         7.7284   13.1530    4.6370 C.ar      1 <0>         0.0914 
     25 C19         7.1434   14.3200    5.1328 C.ar      1 <0>        -0.0895 
     26 C20         5.9459   14.2569    5.8373 C.ar      1 <0>        -0.1037 
     27 C21         5.3055   13.0290    6.0663 C.ar      1 <0>        -0.1175 
     28 C22         5.8470   11.8576    5.4856 C.ar      1 <0>        -0.0700 
     29 C23         7.0530   11.9433    4.7751 C.ar      1 <0>        -0.0725 
     30 C24         5.1571   10.4899    5.6097 C.3       1 <0>         0.4632 
     31 F1          5.7050    9.5652    4.8195 F         1 <0>        -0.1699 
     32 F2          5.2594   10.0649    6.8640 F         1 <0>        -0.1699 
     33 F3          3.8694   10.5778    5.2767 F         1 <0>        -0.1699 
     34 C25         4.0470   12.9590    6.9469 C.3       1 <0>         0.0823 
     35 N4          3.6002   14.2653    7.6583 N.4       1 <0>        -0.4393 
     36 C26         4.5117   14.6282    8.8581 C.3       1 <0>         0.0645 
     37 C27         4.0464   15.9820    9.4316 C.3       1 <0>         0.0437 
     38 N5          2.6521   15.8910    9.8826 N.3       1 <0>        -0.6955 
     39 C28         1.7311   15.4931    8.8079 C.3       1 <0>         0.0437 
     40 C29         2.1473   14.1445    8.1738 C.3       1 <0>         0.0645 
     41 C30         2.2257   17.1534   10.4786 C.3       1 <0>         0.0458 
     42 H1         15.5649   11.4625    2.4782 H         1 <0>         0.0822 
     43 H2         14.9808   11.9190    0.8657 H         1 <0>         0.0822 
     44 H3         15.8812   13.0696    1.8122 H         1 <0>         0.0822 
     45 H4         12.6515   11.5206    1.2642 H         1 <0>         0.1477 
     46 H5         10.5377   12.1530    2.2003 H         1 <0>         0.1394 
     47 H6         12.5739   14.7893    4.9429 H         1 <0>         0.1434 
     48 H7         18.5326   14.8964    3.1512 H         1 <0>         0.1663 
     49 H8         16.2605   16.7810    6.3108 H         1 <0>         0.1725 
     50 H9         20.3940   18.6613    6.5548 H         1 <0>         0.3027 
     51 H10        20.9471   18.2546    2.8736 H         1 <0>         0.0928 
     52 H11        22.4734   17.4511    3.2604 H         1 <0>         0.0928 
     53 H12         9.1140   12.4085    3.3152 H         1 <0>         0.3227 
     54 H13         7.6260   15.2750    4.9944 H         1 <0>         0.1686 
     55 H14         5.5449   15.1810    6.2232 H         1 <0>         0.1453 
     56 H15         7.4965   11.0537    4.3541 H         1 <0>         0.1766 
     57 H16         3.1949   12.6744    6.3270 H         1 <0>         0.1286 
     58 H17         4.1589   12.2139    7.7389 H         1 <0>         0.1286 
     59 H18         4.4411   13.8365    9.6025 H         1 <0>         0.1295 
     60 H19         5.5393   14.6835    8.5005 H         1 <0>         0.1295 
     61 H20         4.6981   16.2556   10.2638 H         1 <0>         0.1035 
     62 H21         4.1181   16.7474    8.6552 H         1 <0>         0.1035 
     63 H22         0.7133   15.4094    9.1891 H         1 <0>         0.1035 
     64 H23         1.7633   16.2654    8.0355 H         1 <0>         0.1035 
     65 H24         1.5218   13.9318    7.3042 H         1 <0>         0.1295 
     66 H25         2.1077   13.3075    8.8763 H         1 <0>         0.1295 
     67 H26         2.2437   17.9706    9.7549 H         1 <0>         0.0849 
     68 H27         1.2116   17.0722   10.8721 H         1 <0>         0.0849 
     69 H28         2.8743   17.4247   11.3120 H         1 <0>         0.0849 
     70 H29         3.6422   15.0109    6.9781 H         1 <0>         0.3095 
@<TRIPOS>BOND
     1    1    2 1    
     2    1   42 1    
     3    1   43 1    
     4    1   44 1    
     5    2    7 ar   
     6    2    3 ar   
     7    3    4 ar   
     8    3   45 1    
     9    4    5 ar   
    10    4   46 1    
    11    5    6 ar   
    12    5   21 1    
    13    6    7 ar   
    14    6   47 1    
    15    7    8 1    
    16    8    9 3    
    17    9   10 1    
    18   10   15 ar   
    19   10   11 ar   
    20   11   12 ar   
    21   11   48 1    
    22   12   20 1    
    23   12   13 ar   
    24   13   14 ar   
    25   13   16 1    
    26   14   15 ar   
    27   15   49 1    
    28   16   17 am   BACKBONE|DICT|INTERRES
    29   16   50 1    
    30   17   18 2    
    31   17   19 1    
    32   19   20 1    
    33   19   51 1    
    34   19   52 1    
    35   21   22 2    
    36   21   23 am   BACKBONE|DICT|INTERRES
    37   23   24 1    
    38   23   53 1    
    39   24   29 ar   
    40   24   25 ar   
    41   25   26 ar   
    42   25   54 1    
    43   26   27 ar   
    44   26   55 1    
    45   27   28 ar   
    46   27   34 1    
    47   28   29 ar   
    48   28   30 1    
    49   29   56 1    
    50   30   31 1    
    51   30   32 1    
    52   30   33 1    
    53   34   35 1    
    54   34   57 1    
    55   34   58 1    
    56   35   40 1    
    57   35   36 1    
    58   35   70 1    
    59   36   37 1    
    60   36   59 1    
    61   36   60 1    
    62   37   38 1    
    63   37   61 1    
    64   37   62 1    
    65   38   39 1    
    66   38   41 1    
    67   39   40 1    
    68   39   63 1    
    69   39   64 1    
    70   40   65 1    
    71   40   66 1    
    72   41   67 1    
    73   41   68 1    
    74   41   69 1    
@<TRIPOS>SUBSTRUCTURE
     1 <0>         1 GROUP             0       ****    0 ROOT    
@<TRIPOS>MOLECULE
CHEMBL1171835
67   71    1
SMALL
USER_CHARGES


@<TRIPOS>ATOM
      1 C1          9.9624   14.3148    5.8288 C.3       1 <0>        -0.1325 
      2 C2          9.6423   13.5350    4.5669 C.ar      1 <0>        -0.0310 
      3 C3          8.3483   13.0380    4.4047 C.ar      1 <0>        -0.1348 
      4 C4          8.0202   12.2695    3.2922 C.ar      1 <0>        -0.0878 
      5 C5          8.9777   12.0024    2.3010 C.ar      1 <0>        -0.1809 
      6 C6         10.2620   12.5514    2.4466 C.ar      1 <0>        -0.0734 
      7 C7         10.6115   13.2932    3.5748 C.ar      1 <0>         0.0852 
      8 C8         12.0031   13.7224    3.7107 C.1       1 <0>        -0.1662 
      9 C9         13.1664   14.0670    3.8568 C.1       1 <0>        -0.0942 
     10 C10        14.5418   14.4865    4.0835 C.ar      1 <0>        -0.3499 
     11 C11        15.0342   15.5383    4.8587 C.ar      1 <0>         0.1320 
     12 N1         16.3422   15.6627    4.8649 N.2       1 <0>        -0.4583 
     13 C12        16.7637   14.6539    4.0700 C.ar      1 <0>         0.4760 
     14 N2         15.6790   13.8735    3.6043 N.pl3     1 <0>         0.2741 
     15 C13        15.9049   12.7381    2.8621 C.ar      1 <0>        -0.0841 
     16 C14        17.2278   12.3661    2.6180 C.ar      1 <0>        -0.3706 
     17 C15        18.2404   13.1977    3.0865 C.ar      1 <0>         0.1157 
     18 N3         18.0331   14.3352    3.7961 N.2       1 <0>        -0.3733 
     19 C16         8.6893   11.0787    1.1377 C.2       1 <0>         0.5571 
     20 O1          9.6226   10.6562    0.4626 O.2       1 <0>        -0.4896 
     21 N4          7.3927   10.7731    0.9152 N.am      1 <0>        -0.4102 
     22 C17         6.8336    9.8563    0.0026 C.ar      1 <0>         0.0549 
     23 C18         7.5691    8.9479   -0.7715 C.ar      1 <0>        -0.0912 
     24 C19         6.9154    8.0471   -1.6052 C.ar      1 <0>        -0.1339 
     25 C20         5.5194    8.0266   -1.6931 C.ar      1 <0>        -0.0547 
     26 C21         4.7617    8.9537   -0.9412 C.ar      1 <0>        -0.0699 
     27 C22         5.4392    9.8503   -0.0972 C.ar      1 <0>        -0.0743 
     28 C23         3.2255    9.0190   -1.0274 C.3       1 <0>         0.4657 
     29 F1          2.7248   10.0781   -0.3856 F         1 <0>        -0.1719 
     30 F2          2.8286    9.1131   -2.2973 F         1 <0>        -0.1719 
     31 F3          2.6815    7.9300   -0.4822 F         1 <0>        -0.1719 
     32 C24         4.8894    6.9614   -2.5973 C.3       1 <0>         0.1404 
     33 N5          4.2266    5.8844   -1.8470 N.3       1 <0>        -0.6919 
     34 C25         5.1543    5.1469   -0.9706 C.3       1 <0>         0.0458 
     35 C26         4.3953    4.1009   -0.1241 C.3       1 <0>         0.0644 
     36 N6          3.6457    3.1354   -1.0688 N.4       1 <0>        -0.4468 
     37 C27         2.6962    3.9334   -1.9934 C.3       1 <0>         0.0644 
     38 C28         3.5101    4.9929   -2.7690 C.3       1 <0>         0.0458 
     39 C29         2.8594    2.0818   -0.2586 C.3       1 <0>        -0.0081 
     40 H1         10.4314   15.2420    5.5170 H         1 <0>         0.0806 
     41 H2          9.0786   14.5828    6.4089 H         1 <0>         0.0806 
     42 H3         10.6664   13.7698    6.4588 H         1 <0>         0.0806 
     43 H4          7.5962   13.2099    5.1608 H         1 <0>         0.1445 
     44 H5          7.0230   11.8557    3.2454 H         1 <0>         0.1379 
     45 H6         11.0184   12.3443    1.6997 H         1 <0>         0.1457 
     46 H7         14.4321   16.2487    5.3932 H         1 <0>         0.1686 
     47 H8         15.0384   12.1749    2.5423 H         1 <0>         0.2128 
     48 H9         17.5034   11.4838    2.0586 H         1 <0>         0.2144 
     49 H10        19.2695   12.9592    2.8645 H         1 <0>         0.1542 
     50 H11         6.7287   11.2350    1.5128 H         1 <0>         0.3144 
     51 H12         8.6443    8.9008   -0.7472 H         1 <0>         0.1546 
     52 H13         7.5124    7.3459   -2.1722 H         1 <0>         0.1341 
     53 H14         4.8722   10.5541    0.4960 H         1 <0>         0.1673 
     54 H15         4.1768    7.4507   -3.2623 H         1 <0>         0.0907 
     55 H16         5.6535    6.5364   -3.2530 H         1 <0>         0.0907 
     56 H17         5.8917    4.6444   -1.6003 H         1 <0>         0.1037 
     57 H18         5.6782    5.8211   -0.2926 H         1 <0>         0.1037 
     58 H19         5.0978    3.4913    0.4473 H         1 <0>         0.1325 
     59 H20         3.6647    4.5600    0.5463 H         1 <0>         0.1325 
     60 H21         2.2571    3.2109   -2.6825 H         1 <0>         0.1325 
     61 H22         1.9140    4.3824   -1.3742 H         1 <0>         0.1325 
     62 H23         2.8349    5.5608   -3.4127 H         1 <0>         0.1037 
     63 H24         4.2526    4.4919   -3.3966 H         1 <0>         0.1037 
     64 H25         2.1099    2.5960    0.3493 H         1 <0>         0.1259 
     65 H26         2.3927    1.4035   -0.9743 H         1 <0>         0.1259 
     66 H27         3.5736    1.5419    0.3671 H         1 <0>         0.1259 
     67 H28         4.3348    2.6677   -1.6451 H         1 <0>         0.3076 
@<TRIPOS>BOND
     1    1    2 1    
     2    1   40 1    
     3    1   41 1    
     4    1   42 1    
     5    2    7 ar   
     6    2    3 ar   
     7    3    4 ar   
     8    3   43 1    
     9    4    5 ar   
    10    4   44 1    
    11    5    6 ar   
    12    5   19 1    
    13    6    7 ar   
    14    6   45 1    
    15    7    8 1    
    16    8    9 3    
    17    9   10 1    
    18   10   14 ar   
    19   10   11 ar   
    20   11   12 ar   
    21   11   46 1    
    22   12   13 ar   
    23   13   18 ar   
    24   13   14 ar   
    25   14   15 ar   
    26   15   16 ar   
    27   15   47 1    
    28   16   17 ar   
    29   16   48 1    
    30   17   18 ar   
    31   17   49 1    
    32   19   20 2    
    33   19   21 am   BACKBONE|DICT|INTERRES
    34   21   22 1    
    35   21   50 1    
    36   22   27 ar   
    37   22   23 ar   
    38   23   24 ar   
    39   23   51 1    
    40   24   25 ar   
    41   24   52 1    
    42   25   26 ar   
    43   25   32 1    
    44   26   27 ar   
    45   26   28 1    
    46   27   53 1    
    47   28   29 1    
    48   28   30 1    
    49   28   31 1    
    50   32   33 1    
    51   32   54 1    
    52   32   55 1    
    53   33   38 1    
    54   33   34 1    
    55   34   35 1    
    56   34   56 1    
    57   34   57 1    
    58   35   36 1    
    59   35   58 1    
    60   35   59 1    
    61   36   37 1    
    62   36   39 1    
    63   36   67 1    
    64   37   38 1    
    65   37   60 1    
    66   37   61 1    
    67   38   62 1    
    68   38   63 1    
    69   39   64 1    
    70   39   65 1    
    71   39   66 1    
@<TRIPOS>SUBSTRUCTURE
     1 <0>         1 GROUP             0       ****    0 ROOT    
@<TRIPOS>MOLECULE
CHEMBL1171835
67   71    1
SMALL
USER_CHARGES


@<TRIPOS>ATOM
      1 C1         10.4512   11.5976    1.1447 C.3       1 <0>        -0.1337 
      2 C2          9.7502   12.2554    2.3306 C.ar      1 <0>        -0.0270 
      3 C3          8.3851   12.0237    2.5107 C.ar      1 <0>        -0.1321 
      4 C4          7.7132   12.5450    3.6142 C.ar      1 <0>        -0.0862 
      5 C5          8.3903   13.3319    4.5603 C.ar      1 <0>        -0.1855 
      6 C6          9.7525   13.5909    4.3577 C.ar      1 <0>        -0.0750 
      7 C7         10.4367   13.0541    3.2646 C.ar      1 <0>         0.0884 
      8 C8         11.8734   13.2756    3.1834 C.1       1 <0>        -0.1729 
      9 C9         13.0905   13.3202    3.1282 C.1       1 <0>        -0.0875 
     10 C10        14.5313   13.1939    3.0248 C.ar      1 <0>        -0.3545 
     11 C11        15.2670   12.2538    2.3135 C.ar      1 <0>         0.1330 
     12 N1         16.5704   12.3498    2.4645 N.2       1 <0>        -0.4555 
     13 C12        16.7290   13.4388    3.2557 C.ar      1 <0>         0.4761 
     14 N2         15.4815   13.9777    3.6352 N.pl3     1 <0>         0.2741 
     15 C13        15.4162   15.0618    4.4714 C.ar      1 <0>        -0.0854 
     16 C14        16.6116   15.6198    4.9250 C.ar      1 <0>        -0.3697 
     17 C15        17.8113   15.0568    4.4878 C.ar      1 <0>         0.1161 
     18 N3         17.8867   13.9765    3.6647 N.2       1 <0>        -0.3706 
     19 C16         7.7090   13.8606    5.8022 C.2       1 <0>         0.5603 
     20 O1          8.3845   14.2539    6.7573 O.2       1 <0>        -0.4850 
     21 N4          6.3597   13.8891    5.7719 N.am      1 <0>        -0.4245 
     22 C17         5.5119   14.3246    6.7990 C.ar      1 <0>         0.0911 
     23 C18         5.7853   15.4521    7.5797 C.ar      1 <0>        -0.0895 
     24 C19         4.9274   15.8023    8.6169 C.ar      1 <0>        -0.1038 
     25 C20         3.7909   15.0326    8.9007 C.ar      1 <0>        -0.1174 
     26 C21         3.4729   13.9320    8.0732 C.ar      1 <0>        -0.0700 
     27 C22         4.3428   13.5984    7.0247 C.ar      1 <0>        -0.0725 
     28 C23         2.2042   13.0924    8.2835 C.3       1 <0>         0.4632 
     29 F1          1.9759   12.2539    7.2720 F         1 <0>        -0.1699 
     30 F2          2.3193   12.3795    9.4042 F         1 <0>        -0.1699 
     31 F3          1.1369   13.8869    8.3847 F         1 <0>        -0.1699 
     32 C24         2.9393   15.4031   10.1175 C.3       1 <0>         0.0824 
     33 N5          3.7390   15.8095   11.3798 N.4       1 <0>        -0.4393 
     34 C25         4.6295   14.6536   11.8969 C.3       1 <0>         0.0645 
     35 C26         5.4222   15.1551   13.1263 C.3       1 <0>         0.0437 
     36 N6          4.5313   15.6572   14.1881 N.3       1 <0>        -0.6955 
     37 C27         3.6365   16.7247   13.7136 C.3       1 <0>         0.0437 
     38 C28         2.7882   16.2689   12.5075 C.3       1 <0>         0.0645 
     39 C29         5.3265   16.1814   15.2992 C.3       1 <0>         0.0458 
     40 H1         11.3009   11.0047    1.4858 H         1 <0>         0.0824 
     41 H2          9.7939   10.9304    0.5865 H         1 <0>         0.0824 
     42 H3         10.8345   12.3587    0.4660 H         1 <0>         0.0824 
     43 H4          7.8441   11.3992    1.8140 H         1 <0>         0.1477 
     44 H5          6.6690   12.2927    3.7279 H         1 <0>         0.1393 
     45 H6         10.2993   14.1821    5.0813 H         1 <0>         0.1429 
     46 H7         14.8311   11.4703    1.7070 H         1 <0>         0.1690 
     47 H8         14.4339   15.4222    4.7431 H         1 <0>         0.2122 
     48 H9         16.6102   16.4721    5.5902 H         1 <0>         0.2150 
     49 H10        18.7578   15.4683    4.8090 H         1 <0>         0.1553 
     50 H11         5.9107   13.4492    4.9853 H         1 <0>         0.3230 
     51 H12         6.6666   16.0483    7.3967 H         1 <0>         0.1687 
     52 H13         5.1725   16.6660    9.2165 H         1 <0>         0.1453 
     53 H14         4.1343   12.7353    6.4082 H         1 <0>         0.1766 
     54 H15         2.3011   16.2550    9.8756 H         1 <0>         0.1285 
     55 H16         2.3049   14.5867   10.4627 H         1 <0>         0.1285 
     56 H17         3.9913   13.7959   12.1124 H         1 <0>         0.1295 
     57 H18         5.3175   14.3899   11.0904 H         1 <0>         0.1295 
     58 H19         6.0504   14.3422   13.4930 H         1 <0>         0.1036 
     59 H20         6.0623   15.9797   12.8042 H         1 <0>         0.1036 
     60 H21         2.9727   17.0554   14.5147 H         1 <0>         0.1036 
     61 H22         4.2535   17.5681   13.3941 H         1 <0>         0.1036 
     62 H23         2.2203   17.1118   12.1092 H         1 <0>         0.1295 
     63 H24         2.1154   15.4422   12.7469 H         1 <0>         0.1295 
     64 H25         5.9154   17.0502   14.9992 H         1 <0>         0.0849 
     65 H26         4.6833   16.4854   16.1262 H         1 <0>         0.0849 
     66 H27         6.0240   15.4419   15.6882 H         1 <0>         0.0849 
     67 H28         4.3419   16.5820   11.1344 H         1 <0>         0.3095 
@<TRIPOS>BOND
     1    1    2 1    
     2    1   40 1    
     3    1   41 1    
     4    1   42 1    
     5    2    7 ar   
     6    2    3 ar   
     7    3    4 ar   
     8    3   43 1    
     9    4    5 ar   
    10    4   44 1    
    11    5    6 ar   
    12    5   19 1    
    13    6    7 ar   
    14    6   45 1    
    15    7    8 1    
    16    8    9 3    
    17    9   10 1    
    18   10   14 ar   
    19   10   11 ar   
    20   11   12 ar   
    21   11   46 1    
    22   12   13 ar   
    23   13   18 ar   
    24   13   14 ar   
    25   14   15 ar   
    26   15   16 ar   
    27   15   47 1    
    28   16   17 ar   
    29   16   48 1    
    30   17   18 ar   
    31   17   49 1    
    32   19   20 2    
    33   19   21 am   BACKBONE|DICT|INTERRES
    34   21   22 1    
    35   21   50 1    
    36   22   27 ar   
    37   22   23 ar   
    38   23   24 ar   
    39   23   51 1    
    40   24   25 ar   
    41   24   52 1    
    42   25   26 ar   
    43   25   32 1    
    44   26   27 ar   
    45   26   28 1    
    46   27   53 1    
    47   28   29 1    
    48   28   30 1    
    49   28   31 1    
    50   32   33 1    
    51   32   54 1    
    52   32   55 1    
    53   33   38 1    
    54   33   34 1    
    55   33   67 1    
    56   34   35 1    
    57   34   56 1    
    58   34   57 1    
    59   35   36 1    
    60   35   58 1    
    61   35   59 1    
    62   36   37 1    
    63   36   39 1    
    64   37   38 1    
    65   37   60 1    
    66   37   61 1    
    67   38   62 1    
    68   38   63 1    
    69   39   64 1    
    70   39   65 1    
    71   39   66 1    
@<TRIPOS>SUBSTRUCTURE
     1 <0>         1 GROUP             0       ****    0 ROOT    
@<TRIPOS>MOLECULE
CHEMBL1171836
67   71    1
SMALL
USER_CHARGES


@<TRIPOS>ATOM
      1 C1         16.5771   12.2976    2.7441 C.3       1 <0>        -0.1330 
      2 C2         15.1541   12.8470    2.9052 C.ar      1 <0>        -0.0301 
      3 C3         14.1124   12.2539    2.2030 C.ar      1 <0>        -0.1348 
      4 C4         12.7861   12.5743    2.4800 C.ar      1 <0>        -0.0869 
      5 C5         12.4721   13.5464    3.4407 C.ar      1 <0>        -0.1807 
      6 C6         13.5283   14.2466    4.0499 C.ar      1 <0>        -0.0726 
      7 C7         14.8546   13.9123    3.7652 C.ar      1 <0>         0.0827 
      8 C8         15.9529   14.6675    4.3292 C.1       1 <0>        -0.1568 
      9 C9         17.0655   15.1087    4.5487 C.1       1 <0>        -0.0996 
     10 C10        18.4079   15.6333    4.6392 C.ar      1 <0>        -0.3025 
     11 C11        19.6125   15.2442    4.0535 C.ar      1 <0>         0.0975 
     12 N1         20.6218   16.0523    4.3196 N.2       1 <0>        -0.4086 
     13 C12        20.0702   17.0242    5.0856 C.ar      1 <0>         0.2289 
     14 N2         18.7134   16.7678    5.3191 N.pl3     1 <0>         0.4407 
     15 C13        17.9310   17.5967    6.0646 C.ar      1 <0>        -0.3814 
     16 C14        18.4720   18.8035    6.4707 C.ar      1 <0>        -0.0836 
     17 N3         19.7940   19.0536    6.3794 N.2       1 <0>        -0.1475 
     18 C15        20.5833   18.1994    5.6635 C.ar      1 <0>        -0.1508 
     19 C16        11.0422   13.8896    3.7847 C.2       1 <0>         0.5570 
     20 O1         10.8005   14.8850    4.4659 O.2       1 <0>        -0.4888 
     21 N4         10.0795   13.0720    3.3095 N.am      1 <0>        -0.4103 
     22 C17         8.7053   13.3444    3.3057 C.ar      1 <0>         0.0548 
     23 C18         8.2009   14.5563    2.8302 C.ar      1 <0>        -0.0911 
     24 C19         6.8284   14.7613    2.7487 C.ar      1 <0>        -0.1339 
     25 C20         5.9326   13.7586    3.1389 C.ar      1 <0>        -0.0546 
     26 C21         6.4308   12.5396    3.6569 C.ar      1 <0>        -0.0698 
     27 C22         7.8202   12.3488    3.7135 C.ar      1 <0>        -0.0743 
     28 C23         5.5123   11.4109    4.1578 C.3       1 <0>         0.4657 
     29 F1          6.1616   10.5713    4.9658 F         1 <0>        -0.1719 
     30 F2          4.4730   11.8806    4.8490 F         1 <0>        -0.1719 
     31 F3          5.0590   10.7090    3.1185 F         1 <0>        -0.1719 
     32 C24         4.4401   14.0236    2.9216 C.3       1 <0>         0.1404 
     33 N5          3.8668   13.1307    1.9062 N.3       1 <0>        -0.6920 
     34 C25         4.4183   13.3719    0.5621 C.3       1 <0>         0.0458 
     35 C26         3.8996   12.3208   -0.4418 C.3       1 <0>         0.0644 
     36 N6          2.3540   12.3489   -0.4513 N.4       1 <0>        -0.4468 
     37 C27         1.8124   12.1120    0.9772 C.3       1 <0>         0.0644 
     38 C28         2.3993   13.1777    1.9289 C.3       1 <0>         0.0458 
     39 C29         1.8007   11.2897   -1.4289 C.3       1 <0>        -0.0081 
     40 H1         16.7966   11.5444    3.5029 H         1 <0>         0.0808 
     41 H2         16.7165   11.8538    1.7830 H         1 <0>         0.0808 
     42 H3         17.3513   13.0629    2.7757 H         1 <0>         0.0808 
     43 H4         14.3176   11.4626    1.4921 H         1 <0>         0.1448 
     44 H5         12.0233   12.0320    1.9407 H         1 <0>         0.1382 
     45 H6         13.3236   15.0476    4.7486 H         1 <0>         0.1460 
     46 H7         19.7345   14.3814    3.4153 H         1 <0>         0.1716 
     47 H8         16.8932   17.3270    6.1938 H         1 <0>         0.2447 
     48 H9         17.8996   19.5352    7.0213 H         1 <0>         0.1889 
     49 H10        21.6276   18.4592    5.5658 H         1 <0>         0.2075 
     50 H11        10.3615   12.1847    2.9210 H         1 <0>         0.3143 
     51 H12         8.8710   15.3224    2.4732 H         1 <0>         0.1546 
     52 H13         6.4638   15.6935    2.3431 H         1 <0>         0.1342 
     53 H14         8.2217   11.4137    4.0677 H         1 <0>         0.1672 
     54 H15         3.9283   13.9076    3.8766 H         1 <0>         0.0908 
     55 H16         4.2736   15.0642    2.6299 H         1 <0>         0.0908 
     56 H17         4.1034   14.3679    0.2447 H         1 <0>         0.1037 
     57 H18         5.5103   13.3351    0.5701 H         1 <0>         0.1037 
     58 H19         4.2203   12.5709   -1.4551 H         1 <0>         0.1325 
     59 H20         4.2204   11.3074   -0.1840 H         1 <0>         0.1325 
     60 H21         0.7266   12.2127    0.9181 H         1 <0>         0.1325 
     61 H22         2.0813   11.0962    1.2778 H         1 <0>         0.1325 
     62 H23         2.0241   12.9992    2.9390 H         1 <0>         0.1037 
     63 H24         2.0806   14.1737    1.6069 H         1 <0>         0.1037 
     64 H25         2.1359   10.3054   -1.0973 H         1 <0>         0.1259 
     65 H26         0.7125   11.3650   -1.4120 H         1 <0>         0.1259 
     66 H27         2.1889   11.5213   -2.4229 H         1 <0>         0.1259 
     67 H28         2.0575   13.2697   -0.7503 H         1 <0>         0.3076 
@<TRIPOS>BOND
     1    1    2 1    
     2    1   40 1    
     3    1   41 1    
     4    1   42 1    
     5    2    7 ar   
     6    2    3 ar   
     7    3    4 ar   
     8    3   43 1    
     9    4    5 ar   
    10    4   44 1    
    11    5    6 ar   
    12    5   19 1    
    13    6    7 ar   
    14    6   45 1    
    15    7    8 1    
    16    8    9 3    
    17    9   10 1    
    18   10   14 ar   
    19   10   11 ar   
    20   11   12 ar   
    21   11   46 1    
    22   12   13 ar   
    23   13   18 ar   
    24   13   14 ar   
    25   14   15 ar   
    26   15   16 ar   
    27   15   47 1    
    28   16   17 ar   
    29   16   48 1    
    30   17   18 ar   
    31   18   49 1    
    32   19   20 2    
    33   19   21 am   BACKBONE|DICT|INTERRES
    34   21   22 1    
    35   21   50 1    
    36   22   27 ar   
    37   22   23 ar   
    38   23   24 ar   
    39   23   51 1    
    40   24   25 ar   
    41   24   52 1    
    42   25   26 ar   
    43   25   32 1    
    44   26   27 ar   
    45   26   28 1    
    46   27   53 1    
    47   28   29 1    
    48   28   30 1    
    49   28   31 1    
    50   32   33 1    
    51   32   54 1    
    52   32   55 1    
    53   33   38 1    
    54   33   34 1    
    55   34   35 1    
    56   34   56 1    
    57   34   57 1    
    58   35   36 1    
    59   35   58 1    
    60   35   59 1    
    61   36   37 1    
    62   36   39 1    
    63   36   67 1    
    64   37   38 1    
    65   37   60 1    
    66   37   61 1    
    67   38   62 1    
    68   38   63 1    
    69   39   64 1    
    70   39   65 1    
    71   39   66 1    
@<TRIPOS>SUBSTRUCTURE
     1 <0>         1 GROUP             0       ****    0 ROOT    
@<TRIPOS>MOLECULE
CHEMBL1171836
67   71    1
SMALL
USER_CHARGES


@<TRIPOS>ATOM
      1 C1          7.8563   12.2531   -4.9807 C.3       1 <0>        -0.1341 
      2 C2          8.4787   10.8930   -4.6869 C.ar      1 <0>        -0.0263 
      3 C3          8.8951   10.1018   -5.7627 C.ar      1 <0>        -0.1320 
      4 C4          9.5108    8.8719   -5.5464 C.ar      1 <0>        -0.0854 
      5 C5          9.7115    8.4009   -4.2415 C.ar      1 <0>        -0.1852 
      6 C6          9.2601    9.1763   -3.1655 C.ar      1 <0>        -0.0742 
      7 C7          8.6673   10.4237   -3.3747 C.ar      1 <0>         0.0861 
      8 C8          8.3134   11.2136   -2.2002 C.1       1 <0>        -0.1634 
      9 C9          8.0977   11.8704   -1.1943 C.1       1 <0>        -0.0929 
     10 C10         7.9354   12.6221    0.0401 C.ar      1 <0>        -0.3073 
     11 C11         6.9029   13.4644    0.4561 C.ar      1 <0>         0.0984 
     12 N1          7.0831   14.0021    1.6444 N.2       1 <0>        -0.4057 
     13 C12         8.2724   13.4931    2.0553 C.ar      1 <0>         0.2292 
     14 N2          8.8329   12.6395    1.0821 N.pl3     1 <0>         0.4416 
     15 C13        10.0436   12.0203    1.2818 C.ar      1 <0>        -0.3833 
     16 C14        10.7168   12.2732    2.4754 C.ar      1 <0>        -0.0829 
     17 N3         10.2138   13.0846    3.4450 N.2       1 <0>        -0.1443 
     18 C15         9.0088   13.6817    3.2392 C.ar      1 <0>        -0.1510 
     19 C16        10.4216    7.0996   -3.9734 C.2       1 <0>         0.5601 
     20 O1         10.0739    6.3864   -3.0311 O.2       1 <0>        -0.4841 
     21 N4         11.4830    6.8636   -4.7755 N.am      1 <0>        -0.4246 
     22 C17        12.4351    5.8348   -4.6808 C.ar      1 <0>         0.0910 
     23 C18        12.2082    4.6079   -4.0429 C.ar      1 <0>        -0.0895 
     24 C19        13.2336    3.6743   -3.9455 C.ar      1 <0>        -0.1037 
     25 C20        14.5049    3.9426   -4.4636 C.ar      1 <0>        -0.1173 
     26 C21        14.7275    5.1455   -5.1757 C.ar      1 <0>        -0.0699 
     27 C22        13.6799    6.0763   -5.2668 C.ar      1 <0>        -0.0725 
     28 C23        16.0703    5.4674   -5.8516 C.3       1 <0>         0.4632 
     29 F1         16.0675    6.6464   -6.4810 F         1 <0>        -0.1699 
     30 F2         17.0494    5.5031   -4.9512 F         1 <0>        -0.1699 
     31 F3         16.3515    4.5287   -6.7558 F         1 <0>        -0.1699 
     32 C24        15.5964    2.9023   -4.2030 C.3       1 <0>         0.0824 
     33 N5         16.0293    2.8247   -2.7164 N.4       1 <0>        -0.4393 
     34 C25        16.7443    4.1160   -2.2516 C.3       1 <0>         0.0644 
     35 C26        17.1197    3.9853   -0.7613 C.3       1 <0>         0.0437 
     36 N6         17.9912    2.8228   -0.5443 N.3       1 <0>        -0.6955 
     37 C27        17.3423    1.5708   -0.9567 C.3       1 <0>         0.0437 
     38 C28        16.9419    1.6043   -2.4527 C.3       1 <0>         0.0644 
     39 C29        18.3712    2.7501    0.8641 C.3       1 <0>         0.0458 
     40 H1          8.5479   13.0449   -4.6962 H         1 <0>         0.0826 
     41 H2          7.5958   12.3759   -6.0297 H         1 <0>         0.0826 
     42 H3          6.9383   12.3906   -4.4042 H         1 <0>         0.0826 
     43 H4          8.7614   10.4502   -6.7755 H         1 <0>         0.1480 
     44 H5          9.8313    8.2936   -6.4026 H         1 <0>         0.1396 
     45 H6          9.4161    8.8241   -2.1531 H         1 <0>         0.1432 
     46 H7          6.0206   13.6955   -0.1256 H         1 <0>         0.1719 
     47 H8         10.4084   11.3664    0.5018 H         1 <0>         0.2441 
     48 H9         11.6668   11.7956    2.6876 H         1 <0>         0.1895 
     49 H10         8.6292   14.3076    4.0342 H         1 <0>         0.2087 
     50 H11        11.6863    7.5876   -5.4470 H         1 <0>         0.3229 
     51 H12        11.2523    4.3655   -3.6015 H         1 <0>         0.1687 
     52 H13        13.0407    2.7545   -3.4088 H         1 <0>         0.1454 
     53 H14        13.8401    7.0129   -5.7854 H         1 <0>         0.1766 
     54 H15        15.2213    1.9078   -4.4488 H         1 <0>         0.1286 
     55 H16        16.5101    3.0575   -4.7730 H         1 <0>         0.1286 
     56 H17        17.6193    4.2643   -2.8863 H         1 <0>         0.1295 
     57 H18        16.0357    4.9355   -2.3817 H         1 <0>         0.1295 
     58 H19        17.6135    4.9042   -0.4356 H         1 <0>         0.1035 
     59 H20        16.2080    3.8547   -0.1732 H         1 <0>         0.1035 
     60 H21        17.9999    0.7173   -0.7749 H         1 <0>         0.1035 
     61 H22        16.4418    1.4505   -0.3499 H         1 <0>         0.1035 
     62 H23        16.3435    0.7248   -2.6956 H         1 <0>         0.1295 
     63 H24        17.8046    1.6770   -3.1175 H         1 <0>         0.1295 
     64 H25        17.5005    2.6337    1.5118 H         1 <0>         0.0849 
     65 H26        19.0415    1.9090    1.0489 H         1 <0>         0.0849 
     66 H27        18.8986    3.6543    1.1728 H         1 <0>         0.0849 
     67 H28        15.2074    2.7146   -2.1258 H         1 <0>         0.3095 
@<TRIPOS>BOND
     1    1    2 1    
     2    1   40 1    
     3    1   41 1    
     4    1   42 1    
     5    2    7 ar   
     6    2    3 ar   
     7    3    4 ar   
     8    3   43 1    
     9    4    5 ar   
    10    4   44 1    
    11    5    6 ar   
    12    5   19 1    
    13    6    7 ar   
    14    6   45 1    
    15    7    8 1    
    16    8    9 3    
    17    9   10 1    
    18   10   14 ar   
    19   10   11 ar   
    20   11   12 ar   
    21   11   46 1    
    22   12   13 ar   
    23   13   18 ar   
    24   13   14 ar   
    25   14   15 ar   
    26   15   16 ar   
    27   15   47 1    
    28   16   17 ar   
    29   16   48 1    
    30   17   18 ar   
    31   18   49 1    
    32   19   20 2    
    33   19   21 am   BACKBONE|DICT|INTERRES
    34   21   22 1    
    35   21   50 1    
    36   22   27 ar   
    37   22   23 ar   
    38   23   24 ar   
    39   23   51 1    
    40   24   25 ar   
    41   24   52 1    
    42   25   26 ar   
    43   25   32 1    
    44   26   27 ar   
    45   26   28 1    
    46   27   53 1    
    47   28   29 1    
    48   28   30 1    
    49   28   31 1    
    50   32   33 1    
    51   32   54 1    
    52   32   55 1    
    53   33   38 1    
    54   33   34 1    
    55   33   67 1    
    56   34   35 1    
    57   34   56 1    
    58   34   57 1    
    59   35   36 1    
    60   35   58 1    
    61   35   59 1    
    62   36   37 1    
    63   36   39 1    
    64   37   38 1    
    65   37   60 1    
    66   37   61 1    
    67   38   62 1    
    68   38   63 1    
    69   39   64 1    
    70   39   65 1    
    71   39   66 1    
@<TRIPOS>SUBSTRUCTURE
     1 <0>         1 GROUP             0       ****    0 ROOT    
@<TRIPOS>MOLECULE
CHEMBL1171837
67   71    1
SMALL
USER_CHARGES


@<TRIPOS>ATOM
      1 C1         10.3954   11.6037    1.1268 C.3       1 <0>        -0.1338 
      2 C2          9.6953   12.2600    2.3156 C.ar      1 <0>        -0.0275 
      3 C3          8.3256   12.0475    2.4870 C.ar      1 <0>        -0.1326 
      4 C4          7.6564   12.5640    3.5958 C.ar      1 <0>        -0.0881 
      5 C5          8.3406   13.3247    4.5590 C.ar      1 <0>        -0.1858 
      6 C6          9.7077   13.5630    4.3630 C.ar      1 <0>        -0.0741 
      7 C7         10.3898   13.0322    3.2653 C.ar      1 <0>         0.0921 
      8 C8         11.8302   13.2366    3.1983 C.1       1 <0>        -0.1627 
      9 C9         13.0480   13.2862    3.1590 C.1       1 <0>        -0.0775 
     10 C10        14.4927   13.1906    3.0582 C.ar      1 <0>        -0.2879 
     11 C11        15.2409   12.2545    2.3522 C.ar      1 <0>         0.0930 
     12 N1         16.5426   12.4003    2.4647 N.2       1 <0>        -0.4084 
     13 C12        16.6823   13.4926    3.2574 C.ar      1 <0>         0.2176 
     14 N2         15.4311   14.0077    3.6521 N.pl3     1 <0>         0.4427 
     15 N3         15.2255   15.0640    4.4614 N.2       1 <0>        -0.3132 
     16 C13        16.3611   15.6663    4.8991 C.ar      1 <0>         0.0429 
     17 C14        17.6519   15.2727    4.5424 C.ar      1 <0>        -0.2920 
     18 C15        17.8290   14.1709    3.7049 C.ar      1 <0>        -0.1388 
     19 C16         7.6660   13.8483    5.8089 C.2       1 <0>         0.5605 
     20 O1          8.3479   14.2641    6.7488 O.2       1 <0>        -0.4842 
     21 N4          6.3162   13.8409    5.8086 N.am      1 <0>        -0.4262 
     22 C17         5.4726   14.2725    6.8439 C.ar      1 <0>         0.0927 
     23 C18         5.7529   15.3887    7.6388 C.ar      1 <0>        -0.0896 
     24 C19         4.8967   15.7354    8.6776 C.ar      1 <0>        -0.1039 
     25 C20         3.7515   14.9761    8.9485 C.ar      1 <0>        -0.1183 
     26 C21         3.4249   13.8888    8.1078 C.ar      1 <0>        -0.0701 
     27 C22         4.2949   13.5560    7.0597 C.ar      1 <0>        -0.0727 
     28 C23         2.1438   13.0663    8.2992 C.3       1 <0>         0.4631 
     29 F1          1.9020   12.2537    7.2685 F         1 <0>        -0.1701 
     30 F2          2.2445   12.3265    9.4027 F         1 <0>        -0.1701 
     31 F3          1.0894   13.8759    8.4181 F         1 <0>        -0.1701 
     32 C24         2.8955   15.3440   10.1641 C.3       1 <0>         0.0826 
     33 N5          3.6791   15.7804   11.4268 N.4       1 <0>        -0.4393 
     34 C25         4.6008   14.6534   11.9506 C.3       1 <0>         0.0644 
     35 C26         5.3620   15.1658   13.1948 C.3       1 <0>         0.0438 
     36 N6          4.4410   15.6256   14.2476 N.3       1 <0>        -0.6957 
     37 C27         3.5389   16.6845   13.7677 C.3       1 <0>         0.0438 
     38 C28         2.7125   16.2204   12.5495 C.3       1 <0>         0.0644 
     39 C29         5.2048   16.1405   15.3852 C.3       1 <0>         0.0459 
     40 H1         11.2694   11.0440    1.4617 H         1 <0>         0.0822 
     41 H2          9.7512   10.8972    0.6041 H         1 <0>         0.0822 
     42 H3         10.7362   12.3595    0.4207 H         1 <0>         0.0822 
     43 H4          7.7767   11.4433    1.7792 H         1 <0>         0.1465 
     44 H5          6.6065   12.3307    3.6982 H         1 <0>         0.1380 
     45 H6         10.2622   14.1340    5.0974 H         1 <0>         0.1439 
     46 H7         14.8261   11.4583    1.7529 H         1 <0>         0.1682 
     47 H8         16.2160   16.5149    5.5509 H         1 <0>         0.1739 
     48 H9         18.5112   15.8121    4.9159 H         1 <0>         0.1949 
     49 H10        18.8173   13.8415    3.4144 H         1 <0>         0.2053 
     50 H11         5.8630   13.3823    5.0353 H         1 <0>         0.3230 
     51 H12         6.6364   15.9853    7.4640 H         1 <0>         0.1691 
     52 H13         5.1486   16.5918    9.2852 H         1 <0>         0.1449 
     53 H14         4.0771   12.7036    6.4318 H         1 <0>         0.1767 
     54 H15         2.2366   16.1774    9.9127 H         1 <0>         0.1283 
     55 H16         2.2800   14.5153   10.5127 H         1 <0>         0.1283 
     56 H17         3.9850   13.7756   12.1552 H         1 <0>         0.1295 
     57 H18         5.3062   14.4131   11.1515 H         1 <0>         0.1295 
     58 H19         6.0114   14.3687   13.5610 H         1 <0>         0.1034 
     59 H20         5.9823   16.0122   12.8928 H         1 <0>         0.1034 
     60 H21         2.8610   17.0019   14.5610 H         1 <0>         0.1034 
     61 H22         4.1479   17.5388   13.4642 H         1 <0>         0.1034 
     62 H23         2.1347   17.0548   12.1479 H         1 <0>         0.1295 
     63 H24         2.0518   15.3818   12.7820 H         1 <0>         0.1295 
     64 H25         5.8080   17.0082   15.1075 H         1 <0>         0.0847 
     65 H26         4.5403   16.4436   16.1964 H         1 <0>         0.0847 
     66 H27         5.8835   15.3871   15.7839 H         1 <0>         0.0847 
     67 H28         4.2626   16.5678   11.1813 H         1 <0>         0.3095 
@<TRIPOS>BOND
     1    1    2 1    
     2    1   40 1    
     3    1   41 1    
     4    1   42 1    
     5    2    7 ar   
     6    2    3 ar   
     7    3    4 ar   
     8    3   43 1    
     9    4    5 ar   
    10    4   44 1    
    11    5    6 ar   
    12    5   19 1    
    13    6    7 ar   
    14    6   45 1    
    15    7    8 1    
    16    8    9 3    
    17    9   10 1    
    18   10   14 ar   
    19   10   11 ar   
    20   11   12 ar   
    21   11   46 1    
    22   12   13 ar   
    23   13   18 ar   
    24   13   14 ar   
    25   14   15 ar   
    26   15   16 ar   
    27   16   17 ar   
    28   16   47 1    
    29   17   18 ar   
    30   17   48 1    
    31   18   49 1    
    32   19   20 2    
    33   19   21 am   BACKBONE|DICT|INTERRES
    34   21   22 1    
    35   21   50 1    
    36   22   27 ar   
    37   22   23 ar   
    38   23   24 ar   
    39   23   51 1    
    40   24   25 ar   
    41   24   52 1    
    42   25   26 ar   
    43   25   32 1    
    44   26   27 ar   
    45   26   28 1    
    46   27   53 1    
    47   28   29 1    
    48   28   30 1    
    49   28   31 1    
    50   32   33 1    
    51   32   54 1    
    52   32   55 1    
    53   33   38 1    
    54   33   34 1    
    55   33   67 1    
    56   34   35 1    
    57   34   56 1    
    58   34   57 1    
    59   35   36 1    
    60   35   58 1    
    61   35   59 1    
    62   36   37 1    
    63   36   39 1    
    64   37   38 1    
    65   37   60 1    
    66   37   61 1    
    67   38   62 1    
    68   38   63 1    
    69   39   64 1    
    70   39   65 1    
    71   39   66 1    
@<TRIPOS>SUBSTRUCTURE
     1 <0>         1 GROUP             0       ****    0 ROOT    
@<TRIPOS>MOLECULE
CHEMBL219557
66   70    1
SMALL
USER_CHARGES


@<TRIPOS>ATOM
      1 C1         21.3399   15.5840    6.5482 C.3       1 <0>        -0.0082 
      2 N1         20.3062   15.4172    5.4116 N.4       1 <0>        -0.4471 
      3 C2         19.5168   16.7058    5.0843 C.3       1 <0>         0.0641 
      4 C3         18.5196   16.4054    3.9267 C.3       1 <0>         0.0470 
      5 N2         17.6339   15.2573    4.2210 N.3       1 <0>        -0.7071 
      6 C4         18.4524   14.0675    4.4887 C.3       1 <0>         0.0470 
      7 C5         19.2892   14.3139    5.7639 C.3       1 <0>         0.0641 
      8 C6         16.7466   14.9574    3.0932 C.3       1 <0>         0.1099 
      9 C7         15.4430   14.2567    3.4285 C.2       1 <0>         0.0006 
     10 C8         14.1544   14.6655    3.7686 C.2       1 <0>        -0.1322 
     11 C9         13.3096   13.5458    3.6812 C.2       1 <0>        -0.0812 
     12 C10        14.1683   12.4927    3.4138 C.2       1 <0>        -0.0030 
     13 O1         15.4453   12.9113    3.2592 O.3       1 <0>        -0.1740 
     14 C11        11.8246   13.4360    3.8164 C.ar      1 <0>        -0.0223 
     15 C12        11.2174   13.8535    4.9979 C.ar      1 <0>        -0.1306 
     16 C13         9.8284   13.6704    5.2192 C.ar      1 <0>         0.1143 
     17 C14         9.0228   13.0682    4.2035 C.ar      1 <0>         0.0493 
     18 C15         9.6734   12.6532    3.0125 C.ar      1 <0>        -0.2572 
     19 C16        11.0541   12.7921    2.8382 C.ar      1 <0>         0.1801 
     20 O2         11.6807   12.2599    1.7322 O.3       1 <0>        -0.3704 
     21 C17        11.2036   10.9960    1.2684 C.3       1 <0>         0.1346 
     22 C18         7.6250   12.8576    4.4763 C.ar      1 <0>         0.2578 
     23 C19         7.1255   13.2707    5.7264 C.ar      1 <0>        -0.0636 
     24 C20         8.0000   13.8311    6.6546 C.ar      1 <0>         0.0685 
     25 N3          9.3174   14.0350    6.4256 N.ar      1 <0>        -0.2672 
     26 C21         5.7057   13.1865    6.0740 C.1       1 <0>         0.2501 
     27 N4          4.5807   13.1257    6.3399 N.1       1 <0>        -0.3946 
     28 N5          6.7527   12.2099    3.5741 N.pl3     1 <0>        -0.6493 
     29 C22         6.5899   12.3675    2.1939 C.ar      1 <0>         0.2357 
     30 C23         6.6393   13.6481    1.6389 C.ar      1 <0>        -0.1907 
     31 C24         6.4403   13.8439    0.2640 C.ar      1 <0>         0.1631 
     32 C25         6.2313   12.7273   -0.5552 C.ar      1 <0>         0.0401 
     33 C26         6.2064   11.4455   -0.0082 C.ar      1 <0>        -0.0677 
     34 C27         6.3770   11.2582    1.3634 C.ar      1 <0>         0.0226 
     35 Cl1         6.3163    9.6461    1.9931 Cl        1 <0>        -0.1230 
     36 Cl2         5.9996   12.9134   -2.2583 Cl        1 <0>        -0.1168 
     37 O3          6.4296   15.0850   -0.3368 O.3       1 <0>        -0.3573 
     38 C28         6.7923   16.2385    0.4074 C.3       1 <0>         0.1355 
     39 H1         22.0277   14.7379    6.4686 H         1 <0>         0.1257 
     40 H2         21.8803   16.5190    6.3933 H         1 <0>         0.1257 
     41 H3         20.8289   15.5515    7.5090 H         1 <0>         0.1257 
     42 H4         19.0158   17.0369    5.9964 H         1 <0>         0.1317 
     43 H5         20.2602   17.4406    4.7685 H         1 <0>         0.1317 
     44 H6         17.9431   17.3063    3.7189 H         1 <0>         0.1059 
     45 H7         19.0973   16.1483    3.0341 H         1 <0>         0.1059 
     46 H8         17.8221   13.1790    4.5084 H         1 <0>         0.1059 
     47 H9         19.1182   13.8718    3.6432 H         1 <0>         0.1059 
     48 H10        19.8762   13.4559    6.0686 H         1 <0>         0.1317 
     49 H11        18.6965   14.6522    6.6164 H         1 <0>         0.1317 
     50 H12        16.5545   15.8309    2.4689 H         1 <0>         0.0941 
     51 H13        17.2913   14.2607    2.4648 H         1 <0>         0.0941 
     52 H14        13.8437   15.6823    3.9567 H         1 <0>         0.1816 
     53 H15        13.9962   11.4426    3.2592 H         1 <0>         0.1866 
     54 H16        11.8324   14.2536    5.7865 H         1 <0>         0.1586 
     55 H17         9.1031   12.1532    2.2483 H         1 <0>         0.1480 
     56 H18        10.4500   11.1249    0.4901 H         1 <0>         0.0467 
     57 H19        12.0308   10.4272    0.8570 H         1 <0>         0.0467 
     58 H20        10.7838   10.3684    2.0570 H         1 <0>         0.0467 
     59 H21         7.6419   14.1340    7.6306 H         1 <0>         0.1767 
     60 H22         6.0000   11.6998    4.0166 H         1 <0>         0.3247 
     61 H23         6.7988   14.4888    2.2962 H         1 <0>         0.1508 
     62 H24         6.0441   10.5941   -0.6525 H         1 <0>         0.1694 
     63 H25         6.0710   16.4534    1.1973 H         1 <0>         0.0396 
     64 H26         7.7934   16.1522    0.8369 H         1 <0>         0.0396 
     65 H27         6.7985   17.0766   -0.2867 H         1 <0>         0.0396 
     66 H28        20.8178   15.1271    4.5861 H         1 <0>         0.3080 
@<TRIPOS>BOND
     1    1    2 1    
     2    1   39 1    
     3    1   40 1    
     4    1   41 1    
     5    2    7 1    
     6    2    3 1    
     7    2   66 1    
     8    3    4 1    
     9    3   42 1    
    10    3   43 1    
    11    4    5 1    
    12    4   44 1    
    13    4   45 1    
    14    5    6 1    
    15    5    8 1    
    16    6    7 1    
    17    6   46 1    
    18    6   47 1    
    19    7   48 1    
    20    7   49 1    
    21    8    9 1    
    22    8   50 1    
    23    8   51 1    
    24    9   13 1    
    25    9   10 2    
    26   10   11 1    
    27   10   52 1    
    28   11   12 2    
    29   11   14 1    
    30   12   13 1    
    31   12   53 1    
    32   14   19 ar   
    33   14   15 ar   
    34   15   16 ar   
    35   15   54 1    
    36   16   25 ar   
    37   16   17 ar   
    38   17   18 ar   
    39   17   22 ar   
    40   18   19 ar   
    41   18   55 1    
    42   19   20 1    
    43   20   21 1    
    44   21   56 1    
    45   21   57 1    
    46   21   58 1    
    47   22   23 ar   
    48   22   28 1    
    49   23   24 ar   
    50   23   26 1    
    51   24   25 ar   
    52   24   59 1    
    53   26   27 3    
    54   28   29 1    
    55   28   60 1    
    56   29   34 ar   
    57   29   30 ar   
    58   30   31 ar   
    59   30   61 1    
    60   31   32 ar   
    61   31   37 1    
    62   32   33 ar   
    63   32   36 1    
    64   33   34 ar   
    65   33   62 1    
    66   34   35 1    
    67   37   38 1    
    68   38   63 1    
    69   38   64 1    
    70   38   65 1    
@<TRIPOS>SUBSTRUCTURE
     1 <0>         1 GROUP             0       ****    0 ROOT    
@<TRIPOS>MOLECULE
CHEMBL219557
66   70    1
SMALL
USER_CHARGES


@<TRIPOS>ATOM
      1 C1         21.0720   15.5567    6.3744 C.3       1 <0>         0.0456 
      2 N1         20.0686   15.4104    5.3208 N.3       1 <0>        -0.6940 
      3 C2         19.3283   16.6429    5.0115 C.3       1 <0>         0.0432 
      4 C3         18.3201   16.4213    3.8422 C.3       1 <0>         0.0652 
      5 N2         17.3987   15.2035    4.1382 N.4       1 <0>        -0.4557 
      6 C4         18.3244   13.9959    4.3862 C.3       1 <0>         0.0652 
      7 C5         19.1432   14.3282    5.6488 C.3       1 <0>         0.0432 
      8 C6         16.4272   14.8944    2.9734 C.3       1 <0>         0.0625 
      9 C7         15.1519   14.2237    3.4300 C.2       1 <0>        -0.0844 
     10 C8         13.8870   14.6569    3.8233 C.2       1 <0>        -0.0975 
     11 C9         13.0233   13.5490    3.7654 C.2       1 <0>        -0.0756 
     12 C10        13.8515   12.4818    3.4625 C.2       1 <0>         0.0401 
     13 O1         15.1268   12.8801    3.2602 O.3       1 <0>        -0.1602 
     14 C11        11.5406   13.4531    3.9346 C.ar      1 <0>        -0.0399 
     15 C12        10.9647   13.8577    5.1344 C.ar      1 <0>        -0.1265 
     16 C13         9.5812   13.6919    5.3819 C.ar      1 <0>         0.1143 
     17 C14         8.7511   13.0781    4.3953 C.ar      1 <0>         0.0511 
     18 C15         9.3758   12.6552    3.1868 C.ar      1 <0>        -0.2484 
     19 C16        10.7477   12.8228    2.9662 C.ar      1 <0>         0.1776 
     20 O2         11.3573   12.3463    1.8239 O.3       1 <0>        -0.3771 
     21 C17        10.9071   11.0958    1.3042 C.3       1 <0>         0.1340 
     22 C18         7.3568   12.8785    4.7087 C.ar      1 <0>         0.2604 
     23 C19         6.8853   13.3327    5.9558 C.ar      1 <0>        -0.0576 
     24 C20         7.7833   13.9171    6.8436 C.ar      1 <0>         0.0745 
     25 N3          9.0986   14.0965    6.5843 N.ar      1 <0>        -0.2685 
     26 C21         5.4733   13.2793    6.3413 C.1       1 <0>         0.2459 
     27 N4          4.3552   13.2433    6.6365 N.1       1 <0>        -0.3850 
     28 N5          6.4568   12.2434    3.8233 N.pl3     1 <0>        -0.6498 
     29 C22         6.2727   12.4796    2.4564 C.ar      1 <0>         0.2320 
     30 C23         6.5067   13.7590    1.9542 C.ar      1 <0>        -0.1916 
     31 C24         6.3828   14.0379    0.5892 C.ar      1 <0>         0.1634 
     32 C25         5.9982   13.0079   -0.2764 C.ar      1 <0>         0.0415 
     33 C26         5.7565   11.7247    0.2180 C.ar      1 <0>        -0.0665 
     34 C27         5.8957   11.4526    1.5798 C.ar      1 <0>         0.0236 
     35 Cl1         5.6101    9.8394    2.1418 Cl        1 <0>        -0.1212 
     36 Cl2         5.8346   13.3008   -1.9724 Cl        1 <0>        -0.1130 
     37 O3          6.6421   15.2824    0.0561 O.3       1 <0>        -0.3569 
     38 C28         7.2851   16.2631    0.8594 C.3       1 <0>         0.1354 
     39 H1         21.8063   14.7538    6.2903 H         1 <0>         0.0846 
     40 H2         21.6204   16.4971    6.2951 H         1 <0>         0.0846 
     41 H3         20.6406   15.4727    7.3717 H         1 <0>         0.0846 
     42 H4         18.7705   16.9178    5.9091 H         1 <0>         0.1024 
     43 H5         20.0159   17.4520    4.7573 H         1 <0>         0.1024 
     44 H6         17.6647   17.2840    3.7494 H         1 <0>         0.1311 
     45 H7         18.8259   16.2317    2.8911 H         1 <0>         0.1311 
     46 H8         17.7008   13.1088    4.4650 H         1 <0>         0.1311 
     47 H9         18.9601   13.8587    3.5077 H         1 <0>         0.1311 
     48 H10        19.6833   13.4550    6.0208 H         1 <0>         0.1024 
     49 H11        18.5011   14.6512    6.4731 H         1 <0>         0.1024 
     50 H12        16.2581   15.8069    2.4114 H         1 <0>         0.1348 
     51 H13        16.9480   14.2024    2.3250 H         1 <0>         0.1348 
     52 H14        13.5955   15.6795    4.0086 H         1 <0>         0.1866 
     53 H15        13.6487   11.4394    3.2927 H         1 <0>         0.2009 
     54 H16        11.5927   14.2533    5.9129 H         1 <0>         0.1561 
     55 H17         8.7903   12.1508    2.4366 H         1 <0>         0.1518 
     56 H18        11.7518   10.5737    0.8597 H         1 <0>         0.0493 
     57 H19        10.5020   10.4295    2.0662 H         1 <0>         0.0493 
     58 H20        10.1492   11.2454    0.5342 H         1 <0>         0.0493 
     59 H21         7.4484   14.2603    7.8137 H         1 <0>         0.1804 
     60 H22         5.6746   11.7813    4.2655 H         1 <0>         0.3255 
     61 H23         6.7872   14.5385    2.6440 H         1 <0>         0.1481 
     62 H24         5.4694   10.9344   -0.4617 H         1 <0>         0.1711 
     63 H25         6.5961   16.6989    1.5871 H         1 <0>         0.0398 
     64 H26         8.1556   15.8582    1.3809 H         1 <0>         0.0398 
     65 H27         7.6455   17.0542    0.2074 H         1 <0>         0.0398 
     66 H28        16.8476   15.3834    4.9669 H         1 <0>         0.3060 
@<TRIPOS>BOND
     1    1    2 1    
     2    1   39 1    
     3    1   40 1    
     4    1   41 1    
     5    2    7 1    
     6    2    3 1    
     7    3    4 1    
     8    3   42 1    
     9    3   43 1    
    10    4    5 1    
    11    4   44 1    
    12    4   45 1    
    13    5    6 1    
    14    5    8 1    
    15    5   66 1    
    16    6    7 1    
    17    6   46 1    
    18    6   47 1    
    19    7   48 1    
    20    7   49 1    
    21    8    9 1    
    22    8   50 1    
    23    8   51 1    
    24    9   13 1    
    25    9   10 2    
    26   10   11 1    
    27   10   52 1    
    28   11   12 2    
    29   11   14 1    
    30   12   13 1    
    31   12   53 1    
    32   14   19 ar   
    33   14   15 ar   
    34   15   16 ar   
    35   15   54 1    
    36   16   25 ar   
    37   16   17 ar   
    38   17   18 ar   
    39   17   22 ar   
    40   18   19 ar   
    41   18   55 1    
    42   19   20 1    
    43   20   21 1    
    44   21   56 1    
    45   21   57 1    
    46   21   58 1    
    47   22   23 ar   
    48   22   28 1    
    49   23   24 ar   
    50   23   26 1    
    51   24   25 ar   
    52   24   59 1    
    53   26   27 3    
    54   28   29 1    
    55   28   60 1    
    56   29   34 ar   
    57   29   30 ar   
    58   30   31 ar   
    59   30   61 1    
    60   31   32 ar   
    61   31   37 1    
    62   32   33 ar   
    63   32   36 1    
    64   33   34 ar   
    65   33   62 1    
    66   34   35 1    
    67   37   38 1    
    68   38   63 1    
    69   38   64 1    
    70   38   65 1    
@<TRIPOS>SUBSTRUCTURE
     1 <0>         1 GROUP             0       ****    0 ROOT    
@<TRIPOS>MOLECULE
CHEMBL1171657
67   71    1
SMALL
USER_CHARGES


@<TRIPOS>ATOM
      1 C1         17.3004   12.5915    2.6704 C.3       1 <0>        -0.1324 
      2 C2         15.8539   13.0283    2.8950 C.ar      1 <0>        -0.0326 
      3 C3         14.8340   12.2515    2.3500 C.ar      1 <0>        -0.1333 
      4 C4         13.4963   12.5076    2.6353 C.ar      1 <0>        -0.0882 
      5 C5         13.1320   13.5744    3.4622 C.ar      1 <0>        -0.1802 
      6 C6         14.1617   14.4075    3.9538 C.ar      1 <0>        -0.0763 
      7 C7         15.5152   14.1561    3.6648 C.ar      1 <0>         0.0862 
      8 C8         16.5631   15.0365    4.1944 C.1       1 <0>        -0.1655 
      9 C9         17.5336   15.6936    4.5486 C.1       1 <0>        -0.1218 
     10 C10        18.6873   16.5162    4.8995 C.ar      1 <0>        -0.0805 
     11 C11        19.9852   16.1992    4.4644 C.ar      1 <0>        -0.0917 
     12 C12        21.0181   17.0925    4.8155 C.ar      1 <0>         0.0961 
     13 C13        20.6727   18.2601    5.5369 C.ar      1 <0>         0.2565 
     14 N1         21.8531   18.9608    5.6642 N.pl3     1 <0>        -0.2784 
     15 H1         22.0434   19.8611    6.0932 H         1 <0>         0.3164 
     16 C14        22.8270   18.1656    5.1152 C.ar      1 <0>         0.0022 
     17 N2         22.3700   17.0587    4.5860 N.2       1 <0>        -0.3328 
     18 N3         19.4527   18.5837    5.9753 N.ar      1 <0>        -0.2962 
     19 C15        18.4934   17.6676    5.6668 C.ar      1 <0>         0.0047 
     20 C16        11.6763   13.8681    3.7835 C.2       1 <0>         0.5572 
     21 O1         11.3983   14.8546    4.4645 O.2       1 <0>        -0.4884 
     22 N4         10.7107   13.0758    3.2616 N.am      1 <0>        -0.4119 
     23 C17         9.3301   13.3699    3.2896 C.ar      1 <0>         0.0563 
     24 C18         8.8274   14.6025    2.8649 C.ar      1 <0>        -0.0906 
     25 C19         7.4566   14.8338    2.8264 C.ar      1 <0>        -0.1338 
     26 C20         6.5542   13.8529    3.2504 C.ar      1 <0>        -0.0553 
     27 C21         7.0495   12.6299    3.7623 C.ar      1 <0>        -0.0702 
     28 C22         8.4323   12.3980    3.7230 C.ar      1 <0>        -0.0750 
     29 C23         6.1549   11.5424    4.3873 C.3       1 <0>         0.4657 
     30 F1          6.7879   10.9385    5.3922 F         1 <0>        -0.1723 
     31 F2          5.0220   12.0148    4.9005 F         1 <0>        -0.1723 
     32 F3          5.8609   10.6302    3.4635 F         1 <0>        -0.1723 
     33 C24         5.0601   14.1560    3.1031 C.3       1 <0>         0.1405 
     34 N5          4.3540   13.1232    2.3346 N.3       1 <0>        -0.6921 
     35 C25         4.7796   13.0482    0.9289 C.3       1 <0>         0.0458 
     36 C26         4.1654   11.8056    0.2510 C.3       1 <0>         0.0645 
     37 N6          2.6246   11.8600    0.3761 N.4       1 <0>        -0.4468 
     38 C27         2.2116   11.9921    1.8618 C.3       1 <0>         0.0645 
     39 C28         2.8977   13.2294    2.4771 C.3       1 <0>         0.0458 
     40 C29         1.9859   10.6049   -0.2522 C.3       1 <0>        -0.0081 
     41 H2         17.6861   12.1135    3.5697 H         1 <0>         0.0802 
     42 H3         17.4044   11.8973    1.8403 H         1 <0>         0.0802 
     43 H4         17.9476   13.4419    2.4644 H         1 <0>         0.0802 
     44 H5         15.0638   11.4079    1.7188 H         1 <0>         0.1447 
     45 H6         12.7596   11.8505    2.1985 H         1 <0>         0.1394 
     46 H7         13.9123   15.2596    4.5727 H         1 <0>         0.1434 
     47 H8         20.1922   15.3125    3.8811 H         1 <0>         0.1942 
     48 H9         23.8609   18.4820    5.1461 H         1 <0>         0.1954 
     49 H10        17.5130   17.8835    6.0641 H         1 <0>         0.1572 
     50 H11        10.9836   12.2021    2.8375 H         1 <0>         0.3144 
     51 H12         9.4974   15.3773    2.5317 H         1 <0>         0.1556 
     52 H13         7.0957   15.7785    2.4482 H         1 <0>         0.1340 
     53 H14         8.8193   11.4534    4.0575 H         1 <0>         0.1666 
     54 H15         4.6415   14.2391    4.1079 H         1 <0>         0.0907 
     55 H16         4.9097   15.1298    2.6345 H         1 <0>         0.0907 
     56 H17         4.4424   13.9560    0.4254 H         1 <0>         0.1038 
     57 H18         5.8669   12.9925    0.8469 H         1 <0>         0.1038 
     58 H19         4.3941   11.8056   -0.8162 H         1 <0>         0.1323 
     59 H20         4.5116   10.8749    0.7075 H         1 <0>         0.1323 
     60 H21         1.1283   12.1123    1.8763 H         1 <0>         0.1323 
     61 H22         2.4911   11.0678    2.3731 H         1 <0>         0.1323 
     62 H23         2.6192   13.3042    3.5301 H         1 <0>         0.1038 
     63 H24         2.5647   14.1349    1.9634 H         1 <0>         0.1038 
     64 H25         2.3506    9.7251    0.2818 H         1 <0>         0.1258 
     65 H26         0.9032   10.7058   -0.1611 H         1 <0>         0.1258 
     66 H27         2.2819   10.5830   -1.3029 H         1 <0>         0.1258 
     67 H28         2.3002   12.6852   -0.1111 H         1 <0>         0.3076 
@<TRIPOS>BOND
     1    1    2 1    
     2    1   41 1    
     3    1   42 1    
     4    1   43 1    
     5    2    7 ar   
     6    2    3 ar   
     7    3    4 ar   
     8    3   44 1    
     9    4    5 ar   
    10    4   45 1    
    11    5    6 ar   
    12    5   20 1    
    13    6    7 ar   
    14    6   46 1    
    15    7    8 1    
    16    8    9 3    
    17    9   10 1    
    18   10   19 ar   
    19   10   11 ar   
    20   11   12 ar   
    21   11   47 1    
    22   12   17 ar   
    23   12   13 ar   
    24   13   14 ar   
    25   13   18 ar   
    26   14   15 1    
    27   14   16 ar   
    28   16   17 ar   
    29   16   48 1    
    30   18   19 ar   
    31   19   49 1    
    32   20   21 2    
    33   20   22 am   BACKBONE|DICT|INTERRES
    34   22   23 1    
    35   22   50 1    
    36   23   28 ar   
    37   23   24 ar   
    38   24   25 ar   
    39   24   51 1    
    40   25   26 ar   
    41   25   52 1    
    42   26   27 ar   
    43   26   33 1    
    44   27   28 ar   
    45   27   29 1    
    46   28   53 1    
    47   29   30 1    
    48   29   31 1    
    49   29   32 1    
    50   33   34 1    
    51   33   54 1    
    52   33   55 1    
    53   34   39 1    
    54   34   35 1    
    55   35   36 1    
    56   35   56 1    
    57   35   57 1    
    58   36   37 1    
    59   36   58 1    
    60   36   59 1    
    61   37   38 1    
    62   37   40 1    
    63   37   67 1    
    64   38   39 1    
    65   38   60 1    
    66   38   61 1    
    67   39   62 1    
    68   39   63 1    
    69   40   64 1    
    70   40   65 1    
    71   40   66 1    
@<TRIPOS>SUBSTRUCTURE
     1 <0>         1 GROUP             0       ****    0 ROOT    
@<TRIPOS>MOLECULE
CHEMBL1171657
67   71    1
SMALL
USER_CHARGES


@<TRIPOS>ATOM
      1 C1         10.0225   14.4431    5.5956 C.3       1 <0>        -0.1334 
      2 C2          9.4574   13.6940    4.3941 C.ar      1 <0>        -0.0290 
      3 C3          8.0958   13.3695    4.3716 C.ar      1 <0>        -0.1317 
      4 C4          7.5504   12.6645    3.2970 C.ar      1 <0>        -0.0886 
      5 C5          8.3559   12.2994    2.2108 C.ar      1 <0>        -0.1848 
      6 C6          9.7106   12.6409    2.2218 C.ar      1 <0>        -0.0760 
      7 C7         10.2720   13.3089    3.3134 C.ar      1 <0>         0.0911 
      8 C8         11.7149   13.5102    3.3101 C.1       1 <0>        -0.1742 
      9 C9         12.9334   13.5637    3.3089 C.1       1 <0>        -0.1120 
     10 C10        14.3835   13.5310    3.2944 C.ar      1 <0>        -0.0847 
     11 C11        15.1176   14.6479    3.7155 C.ar      1 <0>        -0.0919 
     12 C12        16.5171   14.5483    3.6682 C.ar      1 <0>         0.0963 
     13 C13        17.0760   13.3308    3.2123 C.ar      1 <0>         0.2558 
     14 N1         18.4275   13.5330    3.2575 N.pl3     1 <0>        -0.2763 
     15 H1         19.1740   12.9088    2.9891 H         1 <0>         0.3172 
     16 C14        18.6156   14.8114    3.7349 C.ar      1 <0>         0.0037 
     17 N2         17.5000   15.4453    4.0025 N.2       1 <0>        -0.3345 
     18 N3         16.4080   12.2480    2.8133 N.ar      1 <0>        -0.2904 
     19 C15        15.0543   12.3775    2.8645 C.ar      1 <0>         0.0043 
     20 C16         7.8077   11.5152    1.0546 C.2       1 <0>         0.5603 
     21 O1          7.9596   11.9183   -0.0989 O.2       1 <0>        -0.4838 
     22 N4          7.2658   10.3328    1.4040 N.am      1 <0>        -0.4261 
     23 C17         6.9692    9.2667    0.5458 C.ar      1 <0>         0.0925 
     24 C18         7.2188    7.9898    1.0365 C.ar      1 <0>        -0.0896 
     25 C19         7.0405    6.8773    0.2206 C.ar      1 <0>        -0.1039 
     26 C20         6.5976    7.0196   -1.1012 C.ar      1 <0>        -0.1181 
     27 C21         6.2569    8.3039   -1.5878 C.ar      1 <0>        -0.0701 
     28 C22         6.4527    9.4184   -0.7512 C.ar      1 <0>        -0.0727 
     29 C23         5.6738    8.5142   -2.9945 C.3       1 <0>         0.4631 
     30 F1          5.3293    9.7840   -3.2253 F         1 <0>        -0.1701 
     31 F2          6.5643    8.1606   -3.9242 F         1 <0>        -0.1701 
     32 F3          4.5752    7.7692   -3.1403 F         1 <0>        -0.1701 
     33 C24         6.5428    5.7497   -1.9538 C.3       1 <0>         0.0826 
     34 N5          7.9483    5.1439   -2.1955 N.4       1 <0>        -0.4393 
     35 C25         8.7678    5.9982   -3.1935 C.3       1 <0>         0.0644 
     36 C26        10.1613    5.3628   -3.3836 C.3       1 <0>         0.0438 
     37 N6         10.0540    3.9696   -3.8361 N.3       1 <0>        -0.6957 
     38 C27         9.3039    3.1379   -2.8838 C.3       1 <0>         0.0438 
     39 C28         7.8698    3.6819   -2.6958 C.3       1 <0>         0.0644 
     40 C29        11.3890    3.4119   -4.0436 C.3       1 <0>         0.0459 
     41 H2         10.4326   15.3983    5.2614 H         1 <0>         0.0819 
     42 H3          9.2675   14.6514    6.3549 H         1 <0>         0.0819 
     43 H4         10.8256   13.8673    6.0575 H         1 <0>         0.0819 
     44 H5          7.4571   13.6446    5.1998 H         1 <0>         0.1467 
     45 H6          6.5001   12.4077    3.3158 H         1 <0>         0.1382 
     46 H7         10.3417   12.3405    1.3938 H         1 <0>         0.1432 
     47 H8         14.6337   15.5500    4.0611 H         1 <0>         0.1935 
     48 H9         19.6190   15.2000    3.8473 H         1 <0>         0.1962 
     49 H10        14.4953   11.5074    2.5466 H         1 <0>         0.1583 
     50 H11         7.3342   10.0934    2.3845 H         1 <0>         0.3229 
     51 H12         7.5996    7.8563    2.0413 H         1 <0>         0.1690 
     52 H13         7.2827    5.9016    0.6176 H         1 <0>         0.1450 
     53 H14         6.2173   10.4104   -1.1089 H         1 <0>         0.1767 
     54 H15         5.9702    4.9840   -1.4278 H         1 <0>         0.1284 
     55 H16         6.1005    5.8719   -2.9415 H         1 <0>         0.1284 
     56 H17         8.2096    6.0657   -4.1303 H         1 <0>         0.1296 
     57 H18         8.8668    6.9881   -2.7417 H         1 <0>         0.1296 
     58 H19        10.7383    5.9604   -4.0938 H         1 <0>         0.1034 
     59 H20        10.6761    5.3588   -2.4242 H         1 <0>         0.1034 
     60 H21         9.2554    2.1039   -3.2322 H         1 <0>         0.1034 
     61 H22         9.8288    3.1562   -1.9255 H         1 <0>         0.1034 
     62 H23         7.3571    3.1108   -1.9189 H         1 <0>         0.1296 
     63 H24         7.2909    3.6694   -3.6209 H         1 <0>         0.1296 
     64 H25        11.9938    3.4663   -3.1398 H         1 <0>         0.0847 
     65 H26        11.3316    2.3679   -4.3578 H         1 <0>         0.0847 
     66 H27        11.9136    3.9554   -4.8293 H         1 <0>         0.0847 
     67 H28         8.4434    5.1439   -1.3136 H         1 <0>         0.3095 
@<TRIPOS>BOND
     1    1    2 1    
     2    1   41 1    
     3    1   42 1    
     4    1   43 1    
     5    2    7 ar   
     6    2    3 ar   
     7    3    4 ar   
     8    3   44 1    
     9    4    5 ar   
    10    4   45 1    
    11    5    6 ar   
    12    5   20 1    
    13    6    7 ar   
    14    6   46 1    
    15    7    8 1    
    16    8    9 3    
    17    9   10 1    
    18   10   19 ar   
    19   10   11 ar   
    20   11   12 ar   
    21   11   47 1    
    22   12   17 ar   
    23   12   13 ar   
    24   13   14 ar   
    25   13   18 ar   
    26   14   15 1    
    27   14   16 ar   
    28   16   17 ar   
    29   16   48 1    
    30   18   19 ar   
    31   19   49 1    
    32   20   21 2    
    33   20   22 am   BACKBONE|DICT|INTERRES
    34   22   23 1    
    35   22   50 1    
    36   23   28 ar   
    37   23   24 ar   
    38   24   25 ar   
    39   24   51 1    
    40   25   26 ar   
    41   25   52 1    
    42   26   27 ar   
    43   26   33 1    
    44   27   28 ar   
    45   27   29 1    
    46   28   53 1    
    47   29   30 1    
    48   29   31 1    
    49   29   32 1    
    50   33   34 1    
    51   33   54 1    
    52   33   55 1    
    53   34   39 1    
    54   34   35 1    
    55   34   67 1    
    56   35   36 1    
    57   35   56 1    
    58   35   57 1    
    59   36   37 1    
    60   36   58 1    
    61   36   59 1    
    62   37   38 1    
    63   37   40 1    
    64   38   39 1    
    65   38   60 1    
    66   38   61 1    
    67   39   62 1    
    68   39   63 1    
    69   40   64 1    
    70   40   65 1    
    71   40   66 1    
@<TRIPOS>SUBSTRUCTURE
     1 <0>         1 GROUP             0       ****    0 ROOT    
@<TRIPOS>MOLECULE
CHEMBL1171658
68   72    1
SMALL
USER_CHARGES


@<TRIPOS>ATOM
      1 C1          6.4445   13.0677    4.9216 C.3       1 <0>        -0.1328 
      2 C2          7.8678   13.1224    4.3758 C.ar      1 <0>        -0.0316 
      3 C3          8.8083   13.9162    5.0352 C.ar      1 <0>        -0.1329 
      4 C4         10.1338   13.9602    4.6081 C.ar      1 <0>        -0.0862 
      5 C5         10.5585   13.2071    3.5016 C.ar      1 <0>        -0.1796 
      6 C6          9.6014   12.4367    2.8245 C.ar      1 <0>        -0.0754 
      7 C7          8.2715   12.3768    3.2540 C.ar      1 <0>         0.0813 
      8 C8          7.3769   11.4539    2.5635 C.1       1 <0>        -0.1531 
      9 C9          6.7304   10.5509    2.0577 C.1       1 <0>        -0.1310 
     10 C10         6.0750    9.3696    1.5262 C.ar      1 <0>         0.0194 
     11 C11         4.6922    9.1811    1.6755 C.ar      1 <0>        -0.0570 
     12 C12         4.1475    8.0024    1.1631 C.ar      1 <0>        -0.0582 
     13 C13         4.9540    7.0870    0.5501 C.ar      1 <0>         0.0886 
     14 N1          4.1456    6.0472    0.1610 N.pl3     1 <0>        -0.1648 
     15 H1          4.4587    5.2177   -0.3195 H         1 <0>         0.2626 
     16 C14         2.8590    6.2776    0.5008 C.ar      1 <0>         0.3817 
     17 O1          1.8892    5.5538    0.2894 O.2       1 <0>        -0.5161 
     18 N2          2.8768    7.4779    1.1247 N.pl3     1 <0>        -0.1858 
     19 H2          2.0511    7.9173    1.5051 H         1 <0>         0.2580 
     20 N3          6.2921    7.2228    0.3890 N.ar      1 <0>        -0.2325 
     21 C15         6.8334    8.3726    0.8844 C.ar      1 <0>         0.0116 
     22 C16        12.0123   13.1316    3.0778 C.2       1 <0>         0.5569 
     23 O2         12.3467   12.3399    2.1951 O.2       1 <0>        -0.4881 
     24 N4         12.8717   13.9389    3.7453 N.am      1 <0>        -0.4109 
     25 C17        14.2769   14.0255    3.6655 C.ar      1 <0>         0.0550 
     26 C18        15.0733   13.2233    2.8398 C.ar      1 <0>        -0.0906 
     27 C19        16.4555   13.3450    2.8673 C.ar      1 <0>        -0.1337 
     28 C20        17.0885   14.2534    3.7154 C.ar      1 <0>        -0.0546 
     29 C21        16.3037   15.0543    4.5811 C.ar      1 <0>        -0.0700 
     30 C22        14.9016   14.9511    4.5057 C.ar      1 <0>        -0.0747 
     31 C23        16.9244   15.8959    5.7190 C.3       1 <0>         0.4657 
     32 F1         16.0296   16.1875    6.6550 F         1 <0>        -0.1721 
     33 F2         17.9020   15.2423    6.3460 F         1 <0>        -0.1721 
     34 F3         17.4070   17.0492    5.2673 F         1 <0>        -0.1721 
     35 C24        18.6140   14.1778    3.7623 C.3       1 <0>         0.1404 
     36 N5         19.2970   15.4557    3.9546 N.3       1 <0>        -0.6924 
     37 C25        19.2135   16.3301    2.7794 C.3       1 <0>         0.0458 
     38 C26        19.8668   17.6977    3.0654 C.3       1 <0>         0.0645 
     39 N6         21.2955   17.5238    3.6378 N.4       1 <0>        -0.4469 
     40 C27        21.2973   16.5748    4.8532 C.3       1 <0>         0.0645 
     41 C28        20.6567   15.2369    4.4540 C.3       1 <0>         0.0458 
     42 C29        21.9022   18.8802    4.0447 C.3       1 <0>        -0.0081 
     43 H3          6.1843   12.0424    5.1836 H         1 <0>         0.0805 
     44 H4          6.3129   13.6792    5.8136 H         1 <0>         0.0805 
     45 H5          5.7343   13.3984    4.1624 H         1 <0>         0.0805 
     46 H6          8.5166   14.4885    5.9040 H         1 <0>         0.1457 
     47 H7         10.8222   14.5624    5.1794 H         1 <0>         0.1407 
     48 H8          9.9059   11.8251    1.9840 H         1 <0>         0.1435 
     49 H9          4.0807    9.9186    2.1766 H         1 <0>         0.1551 
     50 H10         7.9031    8.4754    0.7690 H         1 <0>         0.1725 
     51 H11        12.4524   14.5498    4.4247 H         1 <0>         0.3141 
     52 H12        14.6597   12.4825    2.1751 H         1 <0>         0.1552 
     53 H13        17.0426   12.6949    2.2342 H         1 <0>         0.1344 
     54 H14        14.2929   15.5481    5.1715 H         1 <0>         0.1665 
     55 H15        18.8287   13.5206    4.6056 H         1 <0>         0.0908 
     56 H16        19.0077   13.6785    2.8711 H         1 <0>         0.0908 
     57 H17        19.7347   15.8509    1.9554 H         1 <0>         0.1038 
     58 H18        18.1748   16.4881    2.4838 H         1 <0>         0.1038 
     59 H19        19.9774   18.2496    2.1309 H         1 <0>         0.1325 
     60 H20        19.2873   18.2641    3.7960 H         1 <0>         0.1325 
     61 H21        22.3396   16.4207    5.1383 H         1 <0>         0.1325 
     62 H22        20.7578   17.0648    5.6670 H         1 <0>         0.1325 
     63 H23        20.6539   14.5849    5.3286 H         1 <0>         0.1038 
     64 H24        21.2312   14.7536    3.6648 H         1 <0>         0.1038 
     65 H25        21.2107   19.3626    4.7368 H         1 <0>         0.1259 
     66 H26        22.8643   18.6897    4.5190 H         1 <0>         0.1259 
     67 H27        22.0341   19.4538    3.1334 H         1 <0>         0.1259 
     68 H28        21.8637   17.0907    2.9215 H         1 <0>         0.3077 
@<TRIPOS>BOND
     1    1    2 1    
     2    1   43 1    
     3    1   44 1    
     4    1   45 1    
     5    2    7 ar   
     6    2    3 ar   
     7    3    4 ar   
     8    3   46 1    
     9    4    5 ar   
    10    4   47 1    
    11    5    6 ar   
    12    5   22 1    
    13    6    7 ar   
    14    6   48 1    
    15    7    8 1    
    16    8    9 3    
    17    9   10 1    
    18   10   21 ar   
    19   10   11 ar   
    20   11   12 ar   
    21   11   49 1    
    22   12   18 ar   
    23   12   13 ar   
    24   13   14 ar   
    25   13   20 ar   
    26   14   15 1    
    27   14   16 ar   
    28   16   17 2    
    29   16   18 ar   
    30   18   19 1    
    31   20   21 ar   
    32   21   50 1    
    33   22   23 2    
    34   22   24 am   BACKBONE|DICT|INTERRES
    35   24   25 1    
    36   24   51 1    
    37   25   30 ar   
    38   25   26 ar   
    39   26   27 ar   
    40   26   52 1    
    41   27   28 ar   
    42   27   53 1    
    43   28   29 ar   
    44   28   35 1    
    45   29   30 ar   
    46   29   31 1    
    47   30   54 1    
    48   31   32 1    
    49   31   33 1    
    50   31   34 1    
    51   35   36 1    
    52   35   55 1    
    53   35   56 1    
    54   36   41 1    
    55   36   37 1    
    56   37   38 1    
    57   37   57 1    
    58   37   58 1    
    59   38   39 1    
    60   38   59 1    
    61   38   60 1    
    62   39   40 1    
    63   39   42 1    
    64   39   68 1    
    65   40   41 1    
    66   40   61 1    
    67   40   62 1    
    68   41   63 1    
    69   41   64 1    
    70   42   65 1    
    71   42   66 1    
    72   42   67 1    
@<TRIPOS>SUBSTRUCTURE
     1 <0>         1 GROUP             0       ****    0 ROOT    
@<TRIPOS>MOLECULE
CHEMBL1171658
68   72    1
SMALL
USER_CHARGES


@<TRIPOS>ATOM
      1 C1         14.6237   12.2286    1.7830 C.3       1 <0>        -0.1338 
      2 C2         13.3405   12.6553    2.4879 C.ar      1 <0>        -0.0281 
      3 C3         12.1206   12.1234    2.0649 C.ar      1 <0>        -0.1312 
      4 C4         10.9275   12.4946    2.6746 C.ar      1 <0>        -0.0868 
      5 C5         10.9243   13.4013    3.7468 C.ar      1 <0>        -0.1841 
      6 C6         12.1495   13.9502    4.1556 C.ar      1 <0>        -0.0752 
      7 C7         13.3492   13.5967    3.5316 C.ar      1 <0>         0.0863 
      8 C8         14.5844   14.2385    3.9679 C.1       1 <0>        -0.1620 
      9 C9         15.6386   14.7753    4.2693 C.1       1 <0>        -0.1211 
     10 C10        16.8745   15.4537    4.6193 C.ar      1 <0>         0.0148 
     11 C11        18.0309   15.3104    3.8325 C.ar      1 <0>        -0.0561 
     12 C12        19.1452   16.0730    4.1858 C.ar      1 <0>        -0.0577 
     13 C13        19.0848   16.9074    5.2633 C.ar      1 <0>         0.0900 
     14 N1         20.2963   17.5480    5.3335 N.pl3     1 <0>        -0.1639 
     15 H1         20.5567   18.2299    6.0287 H         1 <0>         0.2632 
     16 C14        21.1254   17.1301    4.3555 C.ar      1 <0>         0.3816 
     17 O1         22.2767   17.4972    4.1473 O.2       1 <0>        -0.5138 
     18 N2         20.4081   16.2181    3.6619 N.pl3     1 <0>        -0.1859 
     19 H2         20.7804   15.6848    2.8851 H         1 <0>         0.2584 
     20 N3         18.0032   17.0540    6.0645 N.ar      1 <0>        -0.2301 
     21 C15        16.9099   16.3134    5.7303 C.ar      1 <0>         0.0120 
     22 C16         9.6637   13.7051    4.5263 C.2       1 <0>         0.5601 
     23 O2          9.7332   14.2544    5.6268 O.2       1 <0>        -0.4834 
     24 N4          8.5000   13.2997    3.9773 N.am      1 <0>        -0.4252 
     25 C17         7.2519   13.3888    4.6007 C.ar      1 <0>         0.0912 
     26 C18         6.7348   14.6109    5.0351 C.ar      1 <0>        -0.0896 
     27 C19         5.4936   14.6566    5.6626 C.ar      1 <0>        -0.1037 
     28 C20         4.7517   13.4869    5.8772 C.ar      1 <0>        -0.1174 
     29 C21         5.2584   12.2524    5.4064 C.ar      1 <0>        -0.0700 
     30 C22         6.5065   12.2235    4.7660 C.ar      1 <0>        -0.0725 
     31 C23         4.4821   10.9405    5.5715 C.3       1 <0>         0.4632 
     32 F1          5.0527    9.9167    4.9329 F         1 <0>        -0.1699 
     33 F2          4.4287   10.6418    6.8646 F         1 <0>        -0.1699 
     34 F3          3.2426   11.0731    5.0971 F         1 <0>        -0.1699 
     35 C24         3.4058   13.5872    6.6089 C.3       1 <0>         0.0823 
     36 N5          3.3322   14.6269    7.7582 N.4       1 <0>        -0.4393 
     37 C25         4.2874   14.2503    8.9160 C.3       1 <0>         0.0645 
     38 C26         4.1781   15.2966   10.0456 C.3       1 <0>         0.0437 
     39 N6          2.7911   15.4395   10.5103 N.3       1 <0>        -0.6955 
     40 C27         1.8638   15.8013    9.4303 C.3       1 <0>         0.0437 
     41 C28         1.8903   14.7442    8.3034 C.3       1 <0>         0.0645 
     42 C29         2.7196   16.4150   11.5947 C.3       1 <0>         0.0457 
     43 H3         15.3436   11.8540    2.5109 H         1 <0>         0.0821 
     44 H4         14.4453   11.4360    1.0627 H         1 <0>         0.0821 
     45 H5         15.0804   13.0724    1.2659 H         1 <0>         0.0821 
     46 H6         12.0973   11.3977    1.2638 H         1 <0>         0.1477 
     47 H7         10.0234   12.0179    2.3242 H         1 <0>         0.1394 
     48 H8         12.1764   14.6534    4.9762 H         1 <0>         0.1433 
     49 H9         18.0464   14.6556    2.9728 H         1 <0>         0.1549 
     50 H10        16.0393   16.4499    6.3579 H         1 <0>         0.1724 
     51 H11         8.5450   12.7480    3.1355 H         1 <0>         0.3227 
     52 H12         7.2906   15.5236    4.8886 H         1 <0>         0.1686 
     53 H13         5.1189   15.6143    5.9906 H         1 <0>         0.1453 
     54 H14         6.9164   11.2847    4.4164 H         1 <0>         0.1767 
     55 H15         2.6262   13.8709    5.8996 H         1 <0>         0.1286 
     56 H16         3.1064   12.6507    7.0818 H         1 <0>         0.1286 
     57 H17         4.0318   13.2433    9.2547 H         1 <0>         0.1295 
     58 H18         5.2943   14.2536    8.4990 H         1 <0>         0.1295 
     59 H19         4.8342   14.9952   10.8649 H         1 <0>         0.1036 
     60 H20         4.5039   16.2640    9.6578 H         1 <0>         0.1036 
     61 H21         0.8457   15.8896    9.8134 H         1 <0>         0.1036 
     62 H22         2.1723   16.7666    9.0227 H         1 <0>         0.1036 
     63 H23         1.2676   15.0670    7.4673 H         1 <0>         0.1295 
     64 H24         1.5755   13.7548    8.6451 H         1 <0>         0.1295 
     65 H25         3.0246   17.4106   11.2660 H         1 <0>         0.0849 
     66 H26         1.7035   16.4834   11.9868 H         1 <0>         0.0849 
     67 H27         3.3662   16.1191   12.4220 H         1 <0>         0.0849 
     68 H28         3.6089   15.5297    7.4002 H         1 <0>         0.3095 
@<TRIPOS>BOND
     1    1    2 1    
     2    1   43 1    
     3    1   44 1    
     4    1   45 1    
     5    2    7 ar   
     6    2    3 ar   
     7    3    4 ar   
     8    3   46 1    
     9    4    5 ar   
    10    4   47 1    
    11    5    6 ar   
    12    5   22 1    
    13    6    7 ar   
    14    6   48 1    
    15    7    8 1    
    16    8    9 3    
    17    9   10 1    
    18   10   21 ar   
    19   10   11 ar   
    20   11   12 ar   
    21   11   49 1    
    22   12   18 ar   
    23   12   13 ar   
    24   13   14 ar   
    25   13   20 ar   
    26   14   15 1    
    27   14   16 ar   
    28   16   17 2    
    29   16   18 ar   
    30   18   19 1    
    31   20   21 ar   
    32   21   50 1    
    33   22   23 2    
    34   22   24 am   BACKBONE|DICT|INTERRES
    35   24   25 1    
    36   24   51 1    
    37   25   30 ar   
    38   25   26 ar   
    39   26   27 ar   
    40   26   52 1    
    41   27   28 ar   
    42   27   53 1    
    43   28   29 ar   
    44   28   35 1    
    45   29   30 ar   
    46   29   31 1    
    47   30   54 1    
    48   31   32 1    
    49   31   33 1    
    50   31   34 1    
    51   35   36 1    
    52   35   55 1    
    53   35   56 1    
    54   36   41 1    
    55   36   37 1    
    56   36   68 1    
    57   37   38 1    
    58   37   57 1    
    59   37   58 1    
    60   38   39 1    
    61   38   59 1    
    62   38   60 1    
    63   39   40 1    
    64   39   42 1    
    65   40   41 1    
    66   40   61 1    
    67   40   62 1    
    68   41   63 1    
    69   41   64 1    
    70   42   65 1    
    71   42   66 1    
    72   42   67 1    
@<TRIPOS>SUBSTRUCTURE
     1 <0>         1 GROUP             0       ****    0 ROOT    
@<TRIPOS>MOLECULE
CHEMBL1092754
55   59    1
SMALL
USER_CHARGES


@<TRIPOS>ATOM
      1 C1          4.3426   10.8557   -3.3111 C.3       1 <0>        -0.1009 
      2 N1          5.2183   11.2947   -2.2351 N.pl3     1 <0>        -0.0065 
      3 C2          5.4292   12.6010   -1.8623 C.ar      1 <0>        -0.1222 
      4 C3          6.3118   12.6901   -0.7990 C.ar      1 <0>        -0.2430 
      5 C4          6.6954   11.3277   -0.5059 C.ar      1 <0>         0.1517 
      6 C5          5.9809   10.4855   -1.4137 C.ar      1 <0>         0.1853 
      7 N2          6.0471    9.1487   -1.4611 N.ar      1 <0>        -0.2687 
      8 C6          6.8775    8.5831   -0.5500 C.ar      1 <0>        -0.0305 
      9 C7          7.6317    9.2970    0.3780 C.ar      1 <0>        -0.2845 
     10 C8          7.5637   10.6921    0.4171 C.ar      1 <0>        -0.0246 
     11 C9          8.3978   11.4529    1.3795 C.ar      1 <0>        -0.0355 
     12 C10         7.8048   12.1911    2.4046 C.ar      1 <0>        -0.1163 
     13 C11         8.5868   12.9607    3.2594 C.ar      1 <0>        -0.0976 
     14 C12         9.9814   12.9978    3.1166 C.ar      1 <0>        -0.1511 
     15 C13        10.5760   12.2206    2.1084 C.ar      1 <0>        -0.0976 
     16 C14         9.7885   11.4538    1.2542 C.ar      1 <0>        -0.1163 
     17 C15        10.7999   13.8537    4.0604 C.2       1 <0>         0.5652 
     18 O1         10.2511   14.5057    4.9498 O.2       1 <0>        -0.5001 
     19 N3         12.1355   13.8536    3.8990 N.am      1 <0>        -0.5870 
     20 C16        13.0601   14.5557    4.7894 C.3       1 <0>         0.0849 
     21 C17        14.5366   14.2269    4.5360 C.3       1 <0>         0.1258 
     22 O2         14.9653   14.6531    3.2645 O.3       1 <0>        -0.6576 
     23 C18         6.7618   13.8901   -0.1258 C.2       1 <0>        -0.1065 
     24 C19         6.1202   15.0666    0.0036 C.2       1 <0>        -0.0276 
     25 C20         6.6022   16.2162    0.7612 C.2       1 <0>         0.5054 
     26 O3          7.6317   16.2552    1.4319 O.2       1 <0>        -0.4096 
     27 C21         5.5840   17.2371    0.5383 C.ar      1 <0>        -0.3054 
     28 C22         5.4428   18.5639    0.9454 C.ar      1 <0>         0.3134 
     29 C23         4.2887   19.2657    0.5847 C.ar      1 <0>        -0.2710 
     30 C24         3.2973   18.6462   -0.1887 C.ar      1 <0>        -0.0325 
     31 C25         3.4533   17.3203   -0.6073 C.ar      1 <0>        -0.1958 
     32 C26         4.6075   16.6409   -0.2268 C.ar      1 <0>         0.1935 
     33 O4          4.9120   15.3503   -0.5485 O.3       1 <0>        -0.2120 
     34 O5          6.4317   19.1779    1.6646 O.3       1 <0>        -0.5231 
     35 H1          3.5764   10.1952   -2.9036 H         1 <0>         0.0849 
     36 H2          3.8646   11.7110   -3.7897 H         1 <0>         0.0849 
     37 H3          4.9294   10.3100   -4.0509 H         1 <0>         0.0849 
     38 H4          4.9176   13.3931   -2.3904 H         1 <0>         0.2128 
     39 H5          6.9387    7.5045   -0.5755 H         1 <0>         0.1521 
     40 H6          8.2711    8.7704    1.0727 H         1 <0>         0.1787 
     41 H7          6.7309   12.1856    2.5243 H         1 <0>         0.1409 
     42 H8          8.0914   13.5311    4.0329 H         1 <0>         0.1415 
     43 H9         11.6464   12.1928    1.9651 H         1 <0>         0.1415 
     44 H10        10.2606   10.8679    0.4781 H         1 <0>         0.1409 
     45 H11        12.5389   13.3964    3.0955 H         1 <0>         0.3079 
     46 H12        12.9031   15.6347    4.7404 H         1 <0>         0.0934 
     47 H13        12.8328   14.2537    5.8139 H         1 <0>         0.0934 
     48 H14        15.1726   14.6537    5.3129 H         1 <0>         0.0536 
     49 H15        14.6673   13.1442    4.5357 H         1 <0>         0.0536 
     50 H16        15.8887   14.4119    3.1521 H         1 <0>         0.4262 
     51 H17         7.7375   13.7902    0.3265 H         1 <0>         0.1721 
     52 H18         4.1663   20.2929    0.8947 H         1 <0>         0.1383 
     53 H19         2.4105   19.1966   -0.4669 H         1 <0>         0.1403 
     54 H20         2.6927   16.8422   -1.2063 H         1 <0>         0.1494 
     55 H21         7.2682   18.7195    1.5330 H         1 <0>         0.4067 
@<TRIPOS>BOND
     1    1    2 1    
     2    1   35 1    
     3    1   36 1    
     4    1   37 1    
     5    2    6 ar   
     6    2    3 ar   
     7    3    4 ar   
     8    3   38 1    
     9    4    5 ar   
    10    4   23 1    
    11    5   10 ar   
    12    5    6 ar   
    13    6    7 ar   
    14    7    8 ar   
    15    8    9 ar   
    16    8   39 1    
    17    9   10 ar   
    18    9   40 1    
    19   10   11 1    
    20   11   16 ar   
    21   11   12 ar   
    22   12   13 ar   
    23   12   41 1    
    24   13   14 ar   
    25   13   42 1    
    26   14   15 ar   
    27   14   17 1    
    28   15   16 ar   
    29   15   43 1    
    30   16   44 1    
    31   17   18 2    
    32   17   19 am   BACKBONE|DICT|INTERRES
    33   19   20 1    
    34   19   45 1    
    35   20   21 1    
    36   20   46 1    
    37   20   47 1    
    38   21   22 1    
    39   21   48 1    
    40   21   49 1    
    41   22   50 1    
    42   23   24 2    
    43   23   51 1    
    44   24   33 1    
    45   24   25 1    
    46   25   26 2    
    47   25   27 1    
    48   27   32 ar   
    49   27   28 ar   
    50   28   29 ar   
    51   28   34 1    
    52   29   30 ar   
    53   29   52 1    
    54   30   31 ar   
    55   30   53 1    
    56   31   32 ar   
    57   31   54 1    
    58   32   33 1    
    59   34   55 1    
@<TRIPOS>SUBSTRUCTURE
     1 <0>         1 GROUP             0       ****    0 ROOT    
@<TRIPOS>MOLECULE
CHEMBL122068
29   31    1
SMALL
USER_CHARGES


@<TRIPOS>ATOM
      1 C1          9.0848   13.3070    3.7115 C.ar      1 <0>        -0.0756 
      2 C2         10.3873   13.6890    4.0311 C.ar      1 <0>        -0.1838 
      3 C3         11.4705   13.2456    3.2651 C.ar      1 <0>         0.2450 
      4 C4         11.2259   12.4316    2.1497 C.ar      1 <0>        -0.1787 
      5 C5          9.9227   12.0490    1.8313 C.ar      1 <0>         0.1144 
      6 C6          8.8535   12.4820    2.6133 C.ar      1 <0>        -0.1505 
      7 Cl1         9.6314   11.0386    0.4664 Cl        1 <0>        -0.1378 
      8 N1         12.7472   13.6589    3.6790 N.pl3     1 <0>        -0.6075 
      9 C7         13.9983   13.3243    3.2152 C.ar      1 <0>         0.1909 
     10 C8         15.2391   13.9424    3.5155 C.ar      1 <0>        -0.3093 
     11 C9         15.7214   15.0369    4.2336 C.ar      1 <0>         0.4860 
     12 N2         17.0455   15.3044    4.3251 N.ar      1 <0>        -0.4596 
     13 C10        17.8757   14.4667    3.6621 C.ar      1 <0>         0.4660 
     14 N3         17.5289   13.3703    2.9394 N.ar      1 <0>        -0.3501 
     15 C11        16.2146   13.1354    2.8645 C.ar      1 <0>         0.1646 
     16 N4         15.6448   12.1274    2.1504 N.2       1 <0>        -0.2669 
     17 N5         14.3359   12.2594    2.4190 N.pl3     1 <0>         0.0050 
     18 H1         13.6687   11.5780    2.0806 H         1 <0>         0.2780 
     19 N6         19.2191   14.8085    3.6660 N.pl3     1 <0>        -0.8695 
     20 N7         14.8391   15.8853    4.8662 N.pl3     1 <0>        -0.8200 
     21 H2          8.2555   13.6386    4.3197 H         1 <0>         0.1462 
     22 H3         10.5481   14.3181    4.8946 H         1 <0>         0.1328 
     23 H4         12.0195   12.0860    1.5091 H         1 <0>         0.1454 
     24 H5          7.8464   12.1754    2.3696 H         1 <0>         0.1507 
     25 H6         12.6904   14.2536    4.4889 H         1 <0>         0.3307 
     26 H7         19.4868   15.6702    4.1133 H         1 <0>         0.4037 
     27 H8         19.8524   14.3268    3.0369 H         1 <0>         0.4037 
     28 H9         13.8500   15.7294    4.7837 H         1 <0>         0.3730 
     29 H10        15.2138   16.6526    5.4030 H         1 <0>         0.3730 
@<TRIPOS>BOND
     1    1    6 ar   
     2    1    2 ar   
     3    1   21 1    
     4    2    3 ar   
     5    2   22 1    
     6    3    4 ar   
     7    3    8 1    
     8    4    5 ar   
     9    4   23 1    
    10    5    6 ar   
    11    5    7 1    
    12    6   24 1    
    13    8    9 1    
    14    8   25 1    
    15    9   17 ar   
    16    9   10 ar   
    17   10   15 ar   
    18   10   11 ar   
    19   11   12 ar   
    20   11   20 1    
    21   12   13 ar   
    22   13   14 ar   
    23   13   19 1    
    24   14   15 ar   
    25   15   16 ar   
    26   16   17 ar   
    27   17   18 1    
    28   19   26 1    
    29   19   27 1    
    30   20   28 1    
    31   20   29 1    
@<TRIPOS>SUBSTRUCTURE
     1 <0>         1 GROUP             0       ****    0 ROOT    
@<TRIPOS>MOLECULE
CHEMBL122068
29   31    1
SMALL
USER_CHARGES


@<TRIPOS>ATOM
      1 C1         10.5323   11.7365    1.8701 C.ar      1 <0>        -0.0888 
      2 C2         11.8893   12.0010    2.0460 C.ar      1 <0>        -0.1564 
      3 C3         12.3272   12.9553    2.9665 C.ar      1 <0>         0.2564 
      4 C4         11.3689   13.6571    3.7134 C.ar      1 <0>        -0.1898 
      5 C5         10.0077   13.3972    3.5364 C.ar      1 <0>         0.1080 
      6 C6          9.5898   12.4369    2.6174 C.ar      1 <0>        -0.1562 
      7 Cl1         8.8350   14.2531    4.4646 Cl        1 <0>        -0.1527 
      8 N1         13.7190   13.1311    3.0738 N.pl3     1 <0>        -0.5873 
      9 C7         14.4700   14.0867    3.7211 C.ar      1 <0>         0.2612 
     10 C8         15.9003   14.1498    3.6645 C.ar      1 <0>        -0.2195 
     11 C9         16.9879   13.4472    3.1363 C.ar      1 <0>         0.4549 
     12 N2         18.2565   13.8861    3.2791 N.ar      1 <0>        -0.5370 
     13 C10        18.4357   15.0079    4.0094 C.ar      1 <0>         0.5763 
     14 N3         17.4894   15.7326    4.6595 N.ar      1 <0>        -0.5650 
     15 C11        16.2508   15.2661    4.4537 C.ar      1 <0>         0.4136 
     16 N4         15.0614   15.7654    4.9263 N.pl3     1 <0>        -0.1003 
     17 N5         14.0069   15.0640    4.4629 N.2       1 <0>        -0.4097 
     18 H1         14.9275   16.5567    5.5388 H         1 <0>         0.3127 
     19 N6         19.7345   15.4751    4.0681 N.pl3     1 <0>        -0.8632 
     20 N7         16.8327   12.2536    2.4643 N.pl3     1 <0>        -0.8073 
     21 H2         10.2154   10.9844    1.1617 H         1 <0>         0.1411 
     22 H3         12.6044   11.4536    1.4504 H         1 <0>         0.1604 
     23 H4         11.6537   14.3958    4.4435 H         1 <0>         0.1363 
     24 H5          8.5378   12.2256    2.4895 H         1 <0>         0.1442 
     25 H6         14.1958   12.4897    2.4639 H         1 <0>         0.3095 
     26 H7         20.4114   15.0417    3.4530 H         1 <0>         0.4058 
     27 H8         19.9160   16.3452    4.5403 H         1 <0>         0.4058 
     28 H9         15.9150   11.8554    2.3520 H         1 <0>         0.3735 
     29 H10        17.6834   11.8386    2.1046 H         1 <0>         0.3735 
@<TRIPOS>BOND
     1    1    6 ar   
     2    1    2 ar   
     3    1   21 1    
     4    2    3 ar   
     5    2   22 1    
     6    3    4 ar   
     7    3    8 1    
     8    4    5 ar   
     9    4   23 1    
    10    5    6 ar   
    11    5    7 1    
    12    6   24 1    
    13    8    9 1    
    14    8   25 1    
    15    9   10 ar   
    16    9   17 ar   
    17   10   11 ar   
    18   10   15 ar   
    19   11   12 ar   
    20   11   20 1    
    21   12   13 ar   
    22   13   14 ar   
    23   13   19 1    
    24   14   15 ar   
    25   15   16 ar   
    26   16   18 1    
    27   16   17 ar   
    28   19   26 1    
    29   19   27 1    
    30   20   28 1    
    31   20   29 1    
@<TRIPOS>SUBSTRUCTURE
     1 <0>         1 GROUP             0       ****    0 ROOT    
@<TRIPOS>MOLECULE
CHEMBL1081312
41   45    1
SMALL
USER_CHARGES


@<TRIPOS>ATOM
      1 C1          6.2328   13.4504   -1.0270 C.ar      1 <0>        -0.4463 
      2 C2          6.0844   12.5764   -2.0883 C.ar      1 <0>        -0.1527 
      3 N1          7.0335   11.5850   -1.9974 N.pl3     1 <0>        -0.2007 
      4 H1          7.1222   10.8363   -2.6694 H         1 <0>         0.2892 
      5 C3          7.8182   11.8001   -0.8870 C.ar      1 <0>         0.2155 
      6 C4          7.3512   12.9877   -0.2592 C.ar      1 <0>         0.1120 
      7 C5          8.0329   13.4138    0.8908 C.ar      1 <0>        -0.1257 
      8 C6          9.1136   12.6494    1.3502 C.ar      1 <0>        -0.1663 
      9 C7          9.4644   11.4911    0.6472 C.ar      1 <0>         0.0040 
     10 N2          8.8318   11.0388   -0.4702 N.ar      1 <0>        -0.2717 
     11 C8          9.8103   13.0273    2.6111 C.ar      1 <0>        -0.0075 
     12 C9          9.2020   13.3257    3.8693 C.ar      1 <0>        -0.1521 
     13 C10         7.9199   13.3841    4.4456 C.ar      1 <0>         0.3896 
     14 N3          7.7534   13.7261    5.7426 N.ar      1 <0>        -0.4461 
     15 C11         8.8760   13.9432    6.4663 C.ar      1 <0>         0.2194 
     16 N4         10.1665   13.8632    6.0478 N.ar      1 <0>        -0.4412 
     17 C12        10.2810   13.5883    4.7414 C.ar      1 <0>         0.3089 
     18 N5         11.4332   13.4535    3.9826 N.pl3     1 <0>         0.0357 
     19 N6         11.1222   13.1096    2.7073 N.2       1 <0>        -0.2354 
     20 C13        12.8413   13.5191    4.4223 C.3       1 <0>         0.0262 
     21 C14        13.6317   14.7002    3.8303 C.3       1 <0>        -0.1623 
     22 C15        15.0403   14.1771    3.5612 C.3       1 <0>        -0.1352 
     23 C16        14.8074   12.7213    3.1604 C.3       1 <0>        -0.1352 
     24 C17        13.6593   12.2538    4.0617 C.3       1 <0>        -0.1623 
     25 N7          6.7683   13.0724    3.7378 N.pl3     1 <0>        -0.7993 
     26 H2          5.6198   14.3222   -0.8468 H         1 <0>         0.2331 
     27 H3          5.3823   12.5770   -2.9107 H         1 <0>         0.2079 
     28 H4          7.7277   14.3120    1.4081 H         1 <0>         0.1786 
     29 H5         10.2800   10.8732    0.9953 H         1 <0>         0.1615 
     30 H6          8.7083   14.2535    7.4857 H         1 <0>         0.1577 
     31 H7         12.8035   13.5926    5.5106 H         1 <0>         0.1089 
     32 H8         13.2319   14.9911    2.8653 H         1 <0>         0.0853 
     33 H9         13.6323   15.5792    4.4756 H         1 <0>         0.0853 
     34 H10        15.5516   14.7413    2.7792 H         1 <0>         0.0747 
     35 H11        15.6470   14.2535    4.4634 H         1 <0>         0.0747 
     36 H12        14.5050   12.6601    2.1135 H         1 <0>         0.0747 
     37 H13        15.7032   12.1103    3.2769 H         1 <0>         0.0747 
     38 H14        14.0761   11.8095    4.9648 H         1 <0>         0.0853 
     39 H15        13.0700   11.4648    3.5894 H         1 <0>         0.0853 
     40 H16         6.8560   12.6882    2.8079 H         1 <0>         0.3760 
     41 H17         5.8930   13.0657    4.2375 H         1 <0>         0.3760 
@<TRIPOS>BOND
     1    1    6 ar   
     2    1    2 ar   
     3    1   26 1    
     4    2    3 ar   
     5    2   27 1    
     6    3    4 1    
     7    3    5 ar   
     8    5   10 ar   
     9    5    6 ar   
    10    6    7 ar   
    11    7    8 ar   
    12    7   28 1    
    13    8    9 ar   
    14    8   11 1    
    15    9   10 ar   
    16    9   29 1    
    17   11   19 ar   
    18   11   12 ar   
    19   12   17 ar   
    20   12   13 ar   
    21   13   14 ar   
    22   13   25 1    
    23   14   15 ar   
    24   15   16 ar   
    25   15   30 1    
    26   16   17 ar   
    27   17   18 ar   
    28   18   19 ar   
    29   18   20 1    
    30   20   24 1    
    31   20   21 1    
    32   20   31 1    
    33   21   22 1    
    34   21   32 1    
    35   21   33 1    
    36   22   23 1    
    37   22   34 1    
    38   22   35 1    
    39   23   24 1    
    40   23   36 1    
    41   23   37 1    
    42   24   38 1    
    43   24   39 1    
    44   25   40 1    
    45   25   41 1    
@<TRIPOS>SUBSTRUCTURE
     1 <0>         1 GROUP             0       ****    0 ROOT    
@<TRIPOS>MOLECULE
CHEMBL253292
60   62    1
SMALL
USER_CHARGES


@<TRIPOS>ATOM
      1 C1         21.6075   14.9446    6.8607 C.3       1 <0>        -0.2063 
      2 C2         21.2538   15.1502    5.3791 C.3       1 <0>         0.0425 
      3 N1         20.9784   16.6430    5.0347 N.4       1 <0>        -0.4530 
      4 C3         22.2188   17.5576    5.2561 C.3       1 <0>         0.0425 
      5 C4         21.8622   19.0565    5.1946 C.3       1 <0>        -0.2063 
      6 C5         20.3963   16.8362    3.6035 C.3       1 <0>         0.0747 
      7 C6         19.2338   15.8843    3.2575 C.3       1 <0>         0.0972 
      8 O1         18.2708   15.8144    4.3093 O.3       1 <0>        -0.3650 
      9 C7         17.1396   15.0524    4.0890 C.ar      1 <0>         0.1066 
     10 C8         17.1003   13.9262    3.2536 C.ar      1 <0>        -0.1394 
     11 C9         15.8957   13.2776    2.9901 C.ar      1 <0>        -0.1226 
     12 C10        14.7082   13.7206    3.5744 C.ar      1 <0>         0.2175 
     13 C11        14.7736   14.8016    4.4738 C.ar      1 <0>        -0.1226 
     14 C12        15.9765   15.4492    4.7409 C.ar      1 <0>        -0.1394 
     15 N2         13.5165   13.0576    3.1941 N.pl3     1 <0>        -0.6592 
     16 C13        12.1617   13.3303    3.4502 C.ar      1 <0>         0.3913 
     17 C14        11.1381   12.5827    2.8406 C.ar      1 <0>        -0.2855 
     18 C15         9.8069   12.9174    3.1639 C.ar      1 <0>         0.1853 
     19 N3          9.5242   13.9583    4.0001 N.ar      1 <0>        -0.2447 
     20 C16        10.5779   14.5958    4.5373 C.ar      1 <0>         0.0974 
     21 N4         11.8709   14.3160    4.3228 N.ar      1 <0>        -0.3798 
     22 N5          8.7689   12.0714    2.7186 N.am      1 <0>        -0.2827 
     23 C17         7.4445   12.2301    2.9586 C.2       1 <0>         0.4655 
     24 O2          6.8959   13.3185    3.1643 O.2       1 <0>        -0.5338 
     25 N6          6.8096   11.0484    3.0795 N.am      1 <0>        -0.2850 
     26 C18         5.6615   10.8605    3.8670 C.ar      1 <0>         0.0636 
     27 C19         5.7339   10.8856    5.2769 C.ar      1 <0>         0.0896 
     28 C20         4.5852   10.6421    6.0337 C.ar      1 <0>        -0.1166 
     29 C21         3.3677   10.3843    5.4121 C.ar      1 <0>        -0.1037 
     30 C22         3.2898   10.3640    4.0214 C.ar      1 <0>        -0.1166 
     31 C23         4.4343   10.5831    3.2445 C.ar      1 <0>         0.0896 
     32 Cl1         4.2851   10.5106    1.5199 Cl        1 <0>        -0.1336 
     33 Cl2         7.2182   11.1638    6.1277 Cl        1 <0>        -0.1336 
     34 H1         21.6284   13.8583    7.0776 H         1 <0>         0.1033 
     35 H2         22.5408   15.4375    7.1438 H         1 <0>         0.1033 
     36 H3         20.8306   15.3646    7.4984 H         1 <0>         0.1033 
     37 H4         22.0158   14.7821    4.6937 H         1 <0>         0.1233 
     38 H5         20.3291   14.6075    5.1827 H         1 <0>         0.1233 
     39 H6         22.6144   17.3371    6.2474 H         1 <0>         0.1233 
     40 H7         22.9603   17.2672    4.5100 H         1 <0>         0.1233 
     41 H8         22.7369   19.6618    5.4385 H         1 <0>         0.1033 
     42 H9         21.5366   19.4181    4.2183 H         1 <0>         0.1033 
     43 H10        21.0927   19.2918    5.9326 H         1 <0>         0.1033 
     44 H11        20.0496   17.8685    3.5636 H         1 <0>         0.1368 
     45 H12        21.2259   16.7084    2.9058 H         1 <0>         0.1368 
     46 H13        18.7565   16.2439    2.3462 H         1 <0>         0.0506 
     47 H14        19.6288   14.8980    3.0267 H         1 <0>         0.0506 
     48 H15        17.9866   13.5636    2.7539 H         1 <0>         0.1376 
     49 H16        15.8860   12.4424    2.3043 H         1 <0>         0.1568 
     50 H17        13.9206   15.1874    4.9975 H         1 <0>         0.1568 
     51 H18        15.9929   16.2933    5.4143 H         1 <0>         0.1376 
     52 H19        13.6547   12.2792    2.5682 H         1 <0>         0.3419 
     53 H20        11.3712   11.7541    2.1863 H         1 <0>         0.1700 
     54 H21        10.3991   15.3278    5.2874 H         1 <0>         0.2047 
     55 H22         9.0687   11.1957    2.3164 H         1 <0>         0.2685 
     56 H23         7.3503   10.2116    2.9212 H         1 <0>         0.2490 
     57 H24         4.6458   10.6173    7.1097 H         1 <0>         0.1537 
     58 H25         2.4979   10.1702    6.0207 H         1 <0>         0.1491 
     59 H26         2.3469   10.1478    3.5438 H         1 <0>         0.1537 
     60 H27        20.2549   16.9414    5.6749 H         1 <0>         0.2984 
@<TRIPOS>BOND
     1    1    2 1    
     2    1   34 1    
     3    1   35 1    
     4    1   36 1    
     5    2    3 1    
     6    2   37 1    
     7    2   38 1    
     8    3    4 1    
     9    3    6 1    
    10    3   60 1    
    11    4    5 1    
    12    4   39 1    
    13    4   40 1    
    14    5   41 1    
    15    5   42 1    
    16    5   43 1    
    17    6    7 1    
    18    6   44 1    
    19    6   45 1    
    20    7    8 1    
    21    7   46 1    
    22    7   47 1    
    23    8    9 1    
    24    9   14 ar   
    25    9   10 ar   
    26   10   11 ar   
    27   10   48 1    
    28   11   12 ar   
    29   11   49 1    
    30   12   13 ar   
    31   12   15 1    
    32   13   14 ar   
    33   13   50 1    
    34   14   51 1    
    35   15   16 1    
    36   15   52 1    
    37   16   21 ar   
    38   16   17 ar   
    39   17   18 ar   
    40   17   53 1    
    41   18   19 ar   
    42   18   22 1    
    43   19   20 ar   
    44   20   21 ar   
    45   20   54 1    
    46   22   23 am   BACKBONE|DICT|INTERRES
    47   22   55 1    
    48   23   24 2    
    49   23   25 am   BACKBONE|DICT|INTERRES
    50   25   26 1    
    51   25   56 1    
    52   26   31 ar   
    53   26   27 ar   
    54   27   28 ar   
    55   27   33 1    
    56   28   29 ar   
    57   28   57 1    
    58   29   30 ar   
    59   29   58 1    
    60   30   31 ar   
    61   30   59 1    
    62   31   32 1    
@<TRIPOS>SUBSTRUCTURE
     1 <0>         1 GROUP             0       ****    0 ROOT    
@<TRIPOS>MOLECULE
CHEMBL298445
35   37    1
SMALL
USER_CHARGES


@<TRIPOS>ATOM
      1 C1         16.0348   15.8722    6.4655 C.3       1 <0>        -0.1790 
      2 C2         17.1556   15.7853    5.4766 C.2       1 <0>         0.0886 
      3 C3         17.1638   15.0538    4.2906 C.2       1 <0>        -0.2266 
      4 S1         18.7416   15.2663    3.5601 S.3       1 <0>         0.1073 
      5 C4         19.1773   16.3074    4.8626 C.2       1 <0>         0.2463 
      6 N1         18.2481   16.4726    5.7606 N.2       1 <0>        -0.1668 
      7 N2         20.4160   16.8779    4.9029 N.pl3     1 <0>        -0.8616 
      8 C5         16.1100   14.1972    3.6537 C.ar      1 <0>         0.1886 
      9 C6         16.4756   13.2144    2.7341 C.ar      1 <0>        -0.2565 
     10 C7         15.4495   12.5163    2.1125 C.ar      1 <0>         0.0679 
     11 N3         14.1558   12.6774    2.4473 N.ar      1 <0>        -0.3118 
     12 C8         13.8667   13.6001    3.3950 C.ar      1 <0>         0.3460 
     13 N4         14.7993   14.3894    4.0076 N.ar      1 <0>        -0.2896 
     14 N5         12.5163   13.8114    3.7293 N.pl3     1 <0>        -0.6021 
     15 C9         11.3106   13.2664    3.2245 C.ar      1 <0>         0.2201 
     16 C10        11.2393   12.0866    2.4639 C.ar      1 <0>        -0.1235 
     17 C11        10.0227   11.6133    1.9843 C.ar      1 <0>        -0.1097 
     18 C12         8.8505   12.3104    2.2513 C.ar      1 <0>        -0.0937 
     19 C13         8.8768   13.4911    3.0051 C.ar      1 <0>        -0.1596 
     20 C14        10.1150   13.9432    3.5004 C.ar      1 <0>        -0.1071 
     21 N6          7.6214   14.2430    3.2509 N.pl3     1 <0>         0.6914 
     22 O1          6.5510   13.6930    3.0098 O.co2     1 <0>        -0.3869 
     23 O2          7.6976   15.3960    3.6652 O.co2     1 <0>        -0.3869 
     24 H1         15.2305   16.4415    6.0159 H         1 <0>         0.0799 
     25 H2         15.6341   14.9005    6.7488 H         1 <0>         0.0799 
     26 H3         16.3066   16.3894    7.3811 H         1 <0>         0.0799 
     27 H4         21.1329   16.6238    4.2376 H         1 <0>         0.3771 
     28 H5         20.6959   17.4824    5.6607 H         1 <0>         0.3771 
     29 H6         17.5060   13.0395    2.4649 H         1 <0>         0.1646 
     30 H7         15.6316   11.8532    1.2904 H         1 <0>         0.1701 
     31 H8         12.3997   14.5302    4.4258 H         1 <0>         0.3307 
     32 H9         12.1003   11.4783    2.2492 H         1 <0>         0.1573 
     33 H10         9.9896   10.6956    1.4131 H         1 <0>         0.1503 
     34 H11         7.9184   11.9215    1.8649 H         1 <0>         0.1621 
     35 H12        10.1542   14.8406    4.0984 H         1 <0>         0.1764 
@<TRIPOS>BOND
     1    1    2 1    
     2    1   24 1    
     3    1   25 1    
     4    1   26 1    
     5    2    6 1    
     6    2    3 2    
     7    3    4 1    
     8    3    8 1    
     9    4    5 1    
    10    5    6 2    
    11    5    7 1    
    12    7   27 1    
    13    7   28 1    
    14    8   13 ar   
    15    8    9 ar   
    16    9   10 ar   
    17    9   29 1    
    18   10   11 ar   
    19   10   30 1    
    20   11   12 ar   
    21   12   13 ar   
    22   12   14 1    
    23   14   15 1    
    24   14   31 1    
    25   15   20 ar   
    26   15   16 ar   
    27   16   17 ar   
    28   16   32 1    
    29   17   18 ar   
    30   17   33 1    
    31   18   19 ar   
    32   18   34 1    
    33   19   20 ar   
    34   19   21 1    
    35   20   35 1    
    36   21   22 2    
    37   21   23 1    
@<TRIPOS>SUBSTRUCTURE
     1 <0>         1 GROUP             0       ****    0 ROOT    
@<TRIPOS>MOLECULE
CHEMBL428029
48   51    1
SMALL
USER_CHARGES


@<TRIPOS>ATOM
      1 C1          5.1690   15.6704   -0.1221 C.3       1 <0>        -0.1561 
      2 C2          5.6779   15.1318    1.2185 C.3       1 <0>        -0.0241 
      3 S1          7.4784   15.2454    1.4127 S.3       1 <0>        -0.2244 
      4 C3          7.9006   14.5742    2.9911 C.ar      1 <0>         0.4049 
      5 N1          6.8799   14.1793    3.7980 N.ar      1 <0>        -0.5902 
      6 C4          7.1903   13.6956    5.0297 C.ar      1 <0>         0.4953 
      7 C5          8.5305   13.6355    5.4302 C.ar      1 <0>        -0.1768 
      8 C6          9.2725   13.2579    6.5766 C.ar      1 <0>        -0.0859 
      9 N2         10.5554   13.4531    6.3986 N.2       1 <0>        -0.3009 
     10 N3         10.7267   13.9061    5.1363 N.pl3     1 <0>         0.0343 
     11 C7          9.5014   14.0610    4.4977 C.ar      1 <0>         0.3343 
     12 N4          9.2304   14.5446    3.2789 N.ar      1 <0>        -0.3997 
     13 C8         12.0824   14.2528    4.6922 C.3       1 <0>        -0.0029 
     14 C9         12.8497   13.1266    3.9553 C.3       1 <0>         0.0614 
     15 C10        14.3311   13.4270    3.6603 C.ar      1 <0>        -0.1029 
     16 C11        14.9314   14.6524    3.9966 C.ar      1 <0>        -0.1070 
     17 C12        16.2993   14.8410    3.8111 C.ar      1 <0>        -0.1299 
     18 C13        17.0702   13.8215    3.2644 C.ar      1 <0>        -0.1178 
     19 C14        16.4826   12.6222    2.8758 C.ar      1 <0>        -0.1299 
     20 C15        15.1198   12.4199    3.0879 C.ar      1 <0>        -0.1070 
     21 Cl1        11.9784   12.6538    2.4665 Cl        1 <0>        -0.2124 
     22 N5          6.1897   13.2917    5.9303 N.pl3     1 <0>        -0.6431 
     23 C16         4.7962   13.1690    5.8095 C.ar      1 <0>         0.2162 
     24 C17         4.1438   13.0084    4.5797 C.ar      1 <0>        -0.1541 
     25 C18         2.7567   12.8649    4.5288 C.ar      1 <0>        -0.0976 
     26 C19         2.0098   12.8781    5.7060 C.ar      1 <0>        -0.1309 
     27 C20         2.6507   13.0293    6.9348 C.ar      1 <0>         0.0935 
     28 C21         4.0375   13.1666    6.9841 C.ar      1 <0>        -0.1404 
     29 Cl2         1.7301   13.0523    8.3938 Cl        1 <0>        -0.1508 
     30 H1          4.0850   15.5800   -0.1940 H         1 <0>         0.0735 
     31 H2          5.4239   16.7232   -0.2463 H         1 <0>         0.0735 
     32 H3          5.6044   15.1217   -0.9578 H         1 <0>         0.0735 
     33 H4          5.2066   15.6734    2.0397 H         1 <0>         0.0985 
     34 H5          5.3879   14.0863    1.3305 H         1 <0>         0.0985 
     35 H6          8.8707   12.8672    7.5008 H         1 <0>         0.1992 
     36 H7         12.0075   15.1326    4.0644 H         1 <0>         0.1124 
     37 H8         12.6628   14.5245    5.5742 H         1 <0>         0.1124 
     38 H9         12.8706   12.2520    4.6014 H         1 <0>         0.1122 
     39 H10        14.3662   15.4638    4.4288 H         1 <0>         0.1367 
     40 H11        16.7657   15.7712    4.1014 H         1 <0>         0.1347 
     41 H12        18.1314   13.9692    3.1208 H         1 <0>         0.1325 
     42 H13        17.0986   11.8505    2.4409 H         1 <0>         0.1347 
     43 H14        14.6784   11.4688    2.8192 H         1 <0>         0.1367 
     44 H15         6.5203   13.0918    6.8679 H         1 <0>         0.3367 
     45 H16         4.7002   12.9682    3.6567 H         1 <0>         0.1369 
     46 H17         2.2629   12.7337    3.5771 H         1 <0>         0.1401 
     47 H18         0.9368   12.7622    5.6672 H         1 <0>         0.1451 
     48 H19         4.5209   13.2702    7.9456 H         1 <0>         0.1570 
@<TRIPOS>BOND
     1    1    2 1    
     2    1   30 1    
     3    1   31 1    
     4    1   32 1    
     5    2    3 1    
     6    2   33 1    
     7    2   34 1    
     8    3    4 1    
     9    4   12 ar   
    10    4    5 ar   
    11    5    6 ar   
    12    6    7 ar   
    13    6   22 1    
    14    7   11 ar   
    15    7    8 ar   
    16    8    9 ar   
    17    8   35 1    
    18    9   10 ar   
    19   10   11 ar   
    20   10   13 1    
    21   11   12 ar   
    22   13   14 1    
    23   13   36 1    
    24   13   37 1    
    25   14   15 1    
    26   14   21 1    
    27   14   38 1    
    28   15   20 ar   
    29   15   16 ar   
    30   16   17 ar   
    31   16   39 1    
    32   17   18 ar   
    33   17   40 1    
    34   18   19 ar   
    35   18   41 1    
    36   19   20 ar   
    37   19   42 1    
    38   20   43 1    
    39   22   23 1    
    40   22   44 1    
    41   23   28 ar   
    42   23   24 ar   
    43   24   25 ar   
    44   24   45 1    
    45   25   26 ar   
    46   25   46 1    
    47   26   27 ar   
    48   26   47 1    
    49   27   28 ar   
    50   27   29 1    
    51   28   48 1    
@<TRIPOS>SUBSTRUCTURE
     1 <0>         1 GROUP             0       ****    0 ROOT    
@<TRIPOS>MOLECULE
CHEMBL428029
48   51    1
SMALL
USER_CHARGES


@<TRIPOS>ATOM
      1 C1          6.0645   14.8424    7.5227 C.3       1 <0>        -0.1561 
      2 C2          6.8090   13.9906    6.4892 C.3       1 <0>        -0.0241 
      3 S1          8.6067   14.2536    6.4902 S.3       1 <0>        -0.2243 
      4 C3          9.2596   13.7254    4.9395 C.ar      1 <0>         0.4049 
      5 N1          8.3951   13.1486    4.0677 N.ar      1 <0>        -0.5902 
      6 C4          8.9076   12.5713    2.9511 C.ar      1 <0>         0.4953 
      7 C5         10.2914   12.5782    2.7333 C.ar      1 <0>        -0.1768 
      8 C6         11.2309   12.0430    1.8079 C.ar      1 <0>        -0.0859 
      9 N2         12.4524   12.2575    2.2206 N.2       1 <0>        -0.3009 
     10 N3         12.3970   12.9848    3.3609 N.pl3     1 <0>         0.0343 
     11 C7         11.0778   13.2398    3.7015 C.ar      1 <0>         0.3344 
     12 N4         10.6055   13.8532    4.7950 N.ar      1 <0>        -0.3998 
     13 C8         13.6205   13.2585    4.1400 C.3       1 <0>        -0.0029 
     14 C9         14.7012   14.0219    3.3265 C.3       1 <0>         0.0614 
     15 C10        15.8210   14.7084    4.1237 C.ar      1 <0>        -0.1029 
     16 C11        17.1671   14.6501    3.7224 C.ar      1 <0>        -0.1070 
     17 C12        18.1587   15.2947    4.4560 C.ar      1 <0>        -0.1299 
     18 C13        17.8153   16.0116    5.5968 C.ar      1 <0>        -0.1178 
     19 C14        16.4877   16.0933    6.0034 C.ar      1 <0>        -0.1299 
     20 C15        15.4961   15.4540    5.2645 C.ar      1 <0>        -0.1070 
     21 Cl1        15.3487   12.9222    2.0645 Cl        1 <0>        -0.2124 
     22 N5          8.0840   11.8535    2.0749 N.pl3     1 <0>        -0.6431 
     23 C16         6.7366   11.4781    2.1803 C.ar      1 <0>         0.2161 
     24 C17         5.7636   12.2914    2.7751 C.ar      1 <0>        -0.1540 
     25 C18         4.4423   11.8546    2.8722 C.ar      1 <0>        -0.0977 
     26 C19         4.0817   10.6062    2.3661 C.ar      1 <0>        -0.1308 
     27 C20         5.0413    9.7978    1.7578 C.ar      1 <0>         0.0934 
     28 C21         6.3618   10.2369    1.6593 C.ar      1 <0>        -0.1403 
     29 Cl2         4.5984    8.2514    1.1333 Cl        1 <0>        -0.1508 
     30 H1          4.9988   14.6124    7.5191 H         1 <0>         0.0736 
     31 H2          6.4342   14.6537    8.5306 H         1 <0>         0.0736 
     32 H3          6.1792   15.9068    7.3167 H         1 <0>         0.0736 
     33 H4          6.6166   12.9306    6.6667 H         1 <0>         0.0985 
     34 H5          6.4170   14.2170    5.4974 H         1 <0>         0.0985 
     35 H6         11.0442   11.4565    0.9193 H         1 <0>         0.1992 
     36 H7         13.3158   13.8208    5.0208 H         1 <0>         0.1124 
     37 H8         14.0119   12.3087    4.5074 H         1 <0>         0.1124 
     38 H9         14.1888   14.8547    2.8645 H         1 <0>         0.1122 
     39 H10        17.4777   14.1031    2.8468 H         1 <0>         0.1367 
     40 H11        19.1906   15.2354    4.1402 H         1 <0>         0.1347 
     41 H12        18.5850   16.5108    6.1660 H         1 <0>         0.1325 
     42 H13        16.2247   16.6538    6.8875 H         1 <0>         0.1347 
     43 H14        14.4735   15.5495    5.5952 H         1 <0>         0.1367 
     44 H15         8.6114   11.3016    1.4170 H         1 <0>         0.3367 
     45 H16         6.0217   13.2639    3.1632 H         1 <0>         0.1369 
     46 H17         3.6994   12.4815    3.3432 H         1 <0>         0.1401 
     47 H18         3.0598   10.2654    2.4479 H         1 <0>         0.1451 
     48 H19         7.0994    9.5935    1.2012 H         1 <0>         0.1570 
@<TRIPOS>BOND
     1    1    2 1    
     2    1   30 1    
     3    1   31 1    
     4    1   32 1    
     5    2    3 1    
     6    2   33 1    
     7    2   34 1    
     8    3    4 1    
     9    4   12 ar   
    10    4    5 ar   
    11    5    6 ar   
    12    6    7 ar   
    13    6   22 1    
    14    7   11 ar   
    15    7    8 ar   
    16    8    9 ar   
    17    8   35 1    
    18    9   10 ar   
    19   10   11 ar   
    20   10   13 1    
    21   11   12 ar   
    22   13   14 1    
    23   13   36 1    
    24   13   37 1    
    25   14   15 1    
    26   14   21 1    
    27   14   38 1    
    28   15   20 ar   
    29   15   16 ar   
    30   16   17 ar   
    31   16   39 1    
    32   17   18 ar   
    33   17   40 1    
    34   18   19 ar   
    35   18   41 1    
    36   19   20 ar   
    37   19   42 1    
    38   20   43 1    
    39   22   23 1    
    40   22   44 1    
    41   23   28 ar   
    42   23   24 ar   
    43   24   25 ar   
    44   24   45 1    
    45   25   26 ar   
    46   25   46 1    
    47   26   27 ar   
    48   26   47 1    
    49   27   28 ar   
    50   27   29 1    
    51   28   48 1    
@<TRIPOS>SUBSTRUCTURE
     1 <0>         1 GROUP             0       ****    0 ROOT    
@<TRIPOS>MOLECULE
CHEMBL536073
74   78    1
SMALL
USER_CHARGES


@<TRIPOS>ATOM
      1 C1          6.3395   12.4673   -5.0985 C.3       1 <0>        -0.1272 
      2 C2          7.4317   11.4040   -5.0457 C.ar      1 <0>        -0.0927 
      3 C3          7.6478   10.6072   -6.1726 C.ar      1 <0>        -0.0917 
      4 C4          8.6462    9.6378   -6.1728 C.ar      1 <0>        -0.1375 
      5 C5          9.4588    9.4616   -5.0460 C.ar      1 <0>         0.0166 
      6 C6          9.2243   10.2375   -3.9075 C.ar      1 <0>        -0.1505 
      7 C7          8.2139   11.2080   -3.8928 C.ar      1 <0>         0.2337 
      8 N1          7.9946   12.0229   -2.7683 N.pl3     1 <0>        -0.6041 
      9 C8          8.1202   11.7990   -1.3920 C.ar      1 <0>         0.3639 
     10 N2          8.4470   10.5650   -0.9281 N.ar      1 <0>        -0.3312 
     11 C9          8.5265   10.4265    0.4190 C.ar      1 <0>         0.0747 
     12 C10         8.2655   11.4756    1.3003 C.ar      1 <0>        -0.2603 
     13 C11         7.9173   12.7150    0.7435 C.ar      1 <0>         0.1676 
     14 N3          7.8495   12.8730   -0.6087 N.ar      1 <0>        -0.3011 
     15 C12         7.5565   13.9067    1.5746 C.ar      1 <0>        -0.1470 
     16 C13         7.8767   14.0008    2.9396 C.ar      1 <0>         0.0082 
     17 N4          7.5236   15.0559    3.7199 N.ar      1 <0>        -0.1766 
     18 C14         6.8300   16.0455    3.1046 C.ar      1 <0>        -0.0292 
     19 N5          6.4851   16.0844    1.7950 N.ar      1 <0>        -0.1766 
     20 C15         6.8543   15.0086    1.0530 C.ar      1 <0>         0.0082 
     21 N6         10.5014    8.5212   -4.9879 N.am      1 <0>        -0.3507 
     22 C16        11.2560    8.0697   -6.0147 C.2       1 <0>         0.5359 
     23 O1         11.1599    8.4703   -7.1774 O.2       1 <0>        -0.4773 
     24 C17        12.3224    7.0605   -5.6588 C.ar      1 <0>        -0.1181 
     25 C18        12.1504    6.1219   -4.6368 C.ar      1 <0>        -0.0657 
     26 C19        13.1678    5.2186   -4.3347 C.ar      1 <0>        -0.1139 
     27 C20        14.3916    5.2458   -5.0112 C.ar      1 <0>        -0.1062 
     28 C21        14.5595    6.1532   -6.0814 C.ar      1 <0>        -0.0795 
     29 C22        13.5151    7.0393   -6.3852 C.ar      1 <0>        -0.0481 
     30 C23        15.8376    6.2032   -6.9315 C.3       1 <0>         0.4625 
     31 F1         15.7424    7.0510   -7.9583 F         1 <0>        -0.1689 
     32 F2         16.8516    6.6121   -6.1746 F         1 <0>        -0.1689 
     33 F3         16.1194    5.0014   -7.4353 F         1 <0>        -0.1689 
     34 C24        15.4821    4.2670   -4.5529 C.3       1 <0>         0.0899 
     35 N7         16.0309    4.5495   -3.1334 N.4       1 <0>        -0.4373 
     36 C25        16.7788    5.8851   -3.0028 C.3       1 <0>         0.0399 
     37 C26        17.5741    5.7027   -1.7221 C.3       1 <0>        -0.1548 
     38 C27        18.0821    4.2595   -1.7723 C.3       1 <0>         0.1114 
     39 H1         19.0098    4.2691   -2.3519 H         1 <0>         0.1099 
     40 C28        17.0056    3.4851   -2.5749 C.3       1 <0>         0.0595 
     41 N8         18.4082    3.6845   -0.4544 N.3       1 <0>        -0.7447 
     42 C29        18.9663    2.3355   -0.5790 C.3       1 <0>         0.0538 
     43 C30        19.3525    4.5109    0.3057 C.3       1 <0>         0.0538 
     44 H2          6.7777   13.4546   -4.9580 H         1 <0>         0.0804 
     45 H3          5.7974   12.4672   -6.0448 H         1 <0>         0.0804 
     46 H4          5.6181   12.3116   -4.2947 H         1 <0>         0.0804 
     47 H5          7.0425   10.7382   -7.0573 H         1 <0>         0.1454 
     48 H6          8.7750    9.0337   -7.0572 H         1 <0>         0.1365 
     49 H7          9.8565   10.1174   -3.0421 H         1 <0>         0.1491 
     50 H8          7.8351   12.9924   -3.0007 H         1 <0>         0.3308 
     51 H9          8.8148    9.4542    0.7907 H         1 <0>         0.1689 
     52 H10         8.3202   11.3074    2.3647 H         1 <0>         0.1665 
     53 H11         8.4222   13.2189    3.4464 H         1 <0>         0.1685 
     54 H12         6.5230   16.8837    3.7140 H         1 <0>         0.1988 
     55 H13         6.5509   15.0366    0.0161 H         1 <0>         0.1685 
     56 H14        10.7519    8.2149   -4.0612 H         1 <0>         0.2940 
     57 H15        11.2274    6.0678   -4.0742 H         1 <0>         0.1685 
     58 H16        13.0032    4.5049   -3.5388 H         1 <0>         0.1431 
     59 H17        13.6280    7.7409   -7.1969 H         1 <0>         0.1767 
     60 H18        15.0806    3.2522   -4.4981 H         1 <0>         0.1252 
     61 H19        16.3628    4.2381   -5.1938 H         1 <0>         0.1252 
     62 H20        17.4218    5.9854   -3.8776 H         1 <0>         0.1259 
     63 H21        16.0504    6.6975   -2.9921 H         1 <0>         0.1259 
     64 H22        18.3893    6.4251   -1.6676 H         1 <0>         0.1177 
     65 H23        16.9161    5.8528   -0.8647 H         1 <0>         0.1177 
     66 H24        16.3895    2.8260   -1.9573 H         1 <0>         0.1275 
     67 H25        17.4563    2.9488   -3.4127 H         1 <0>         0.1275 
     68 H26        19.8890    2.3345   -1.1636 H         1 <0>         0.0776 
     69 H27        19.1873    1.9131    0.4031 H         1 <0>         0.0776 
     70 H28        18.2611    1.6548   -1.0579 H         1 <0>         0.0776 
     71 H29        18.9269    5.4876    0.5410 H         1 <0>         0.0776 
     72 H30        19.5980    4.0450    1.2628 H         1 <0>         0.0776 
     73 H31        20.2855    4.6727   -0.2389 H         1 <0>         0.0776 
     74 H32        15.2453    4.5951   -2.4949 H         1 <0>         0.3247 
@<TRIPOS>BOND
     1    1    2 1    
     2    1   44 1    
     3    1   45 1    
     4    1   46 1    
     5    2    7 ar   
     6    2    3 ar   
     7    3    4 ar   
     8    3   47 1    
     9    4    5 ar   
    10    4   48 1    
    11    5    6 ar   
    12    5   21 1    
    13    6    7 ar   
    14    6   49 1    
    15    7    8 1    
    16    8    9 1    
    17    8   50 1    
    18    9   14 ar   
    19    9   10 ar   
    20   10   11 ar   
    21   11   12 ar   
    22   11   51 1    
    23   12   13 ar   
    24   12   52 1    
    25   13   14 ar   
    26   13   15 1    
    27   15   20 ar   
    28   15   16 ar   
    29   16   17 ar   
    30   16   53 1    
    31   17   18 ar   
    32   18   19 ar   
    33   18   54 1    
    34   19   20 ar   
    35   20   55 1    
    36   21   22 am   BACKBONE|DICT|INTERRES
    37   21   56 1    
    38   22   23 2    
    39   22   24 1    
    40   24   29 ar   
    41   24   25 ar   
    42   25   26 ar   
    43   25   57 1    
    44   26   27 ar   
    45   26   58 1    
    46   27   28 ar   
    47   27   34 1    
    48   28   29 ar   
    49   28   30 1    
    50   29   59 1    
    51   30   31 1    
    52   30   32 1    
    53   30   33 1    
    54   34   35 1    
    55   34   60 1    
    56   34   61 1    
    57   35   40 1    
    58   35   36 1    
    59   35   74 1    
    60   36   37 1    
    61   36   62 1    
    62   36   63 1    
    63   37   38 1    
    64   37   64 1    
    65   37   65 1    
    66   38   39 1    
    67   38   40 1    
    68   38   41 1    
    69   40   66 1    
    70   40   67 1    
    71   41   42 1    
    72   41   43 1    
    73   42   68 1    
    74   42   69 1    
    75   42   70 1    
    76   43   71 1    
    77   43   72 1    
    78   43   73 1    
@<TRIPOS>SUBSTRUCTURE
     1 <0>         1 GROUP             0       ****    0 ROOT    
@<TRIPOS>MOLECULE
CHEMBL550281
46   49    1
SMALL
USER_CHARGES


@<TRIPOS>ATOM
      1 C1         10.0619   11.1897    0.9951 C.3       1 <0>        -0.1346 
      2 C2          9.5213   11.9309    2.2097 C.ar      1 <0>        -0.0418 
      3 C3          8.1536   11.8560    2.4796 C.ar      1 <0>        -0.1331 
      4 C4          7.6137   12.4806    3.6017 C.ar      1 <0>        -0.0927 
      5 C5          8.4317   13.2201    4.4700 C.ar      1 <0>        -0.1707 
      6 C6          9.7949   13.3249    4.1637 C.ar      1 <0>        -0.0840 
      7 C7         10.3642   12.6673    3.0633 C.ar      1 <0>        -0.0845 
      8 C8         11.8335   12.6957    2.8582 C.2       1 <0>        -0.1068 
      9 C9         12.7040   13.5480    3.4378 C.2       1 <0>        -0.1290 
     10 N1         14.0980   13.5319    3.2649 N.pl3     1 <0>         0.0839 
     11 C10        14.8484   12.7037    2.4452 C.ar      1 <0>        -0.0659 
     12 N2         16.1386   12.9272    2.4706 N.2       1 <0>        -0.2779 
     13 C11        16.2739   13.9563    3.3618 C.ar      1 <0>        -0.0300 
     14 C12        15.0214   14.3461    3.8954 C.ar      1 <0>         0.2823 
     15 N3         14.8366   15.2913    4.8326 N.ar      1 <0>        -0.3973 
     16 C13        16.0010   15.8532    5.2644 C.ar      1 <0>         0.1148 
     17 N4         17.2609   15.5896    4.8230 N.ar      1 <0>        -0.3154 
     18 C14        17.3956   14.6431    3.8537 C.ar      1 <0>         0.0238 
     19 C15         7.9020   13.8583    5.7387 C.2       1 <0>         0.5441 
     20 O1          8.6901   14.2534    6.6030 O.2       1 <0>        -0.4879 
     21 N5          6.5597   13.9848    5.8265 N.am      1 <0>        -0.3474 
     22 C16         5.8110   14.5656    6.8627 C.ar      1 <0>         0.1197 
     23 C17         4.4766   14.1611    6.9804 C.ar      1 <0>        -0.1412 
     24 C18         3.6759   14.7150    7.9901 C.ar      1 <0>        -0.0524 
     25 C19         4.2390   15.6746    8.8425 C.ar      1 <0>        -0.1390 
     26 C20         5.5711   16.0426    8.6554 C.ar      1 <0>        -0.0136 
     27 N6          6.3529   15.5081    7.6849 N.ar      1 <0>        -0.1834 
     28 C21         2.2139   14.2998    8.1530 C.3       1 <0>         0.4636 
     29 F1          2.1303   13.3277    9.0626 F         1 <0>        -0.1701 
     30 F2          1.4693   15.3290    8.5646 F         1 <0>        -0.1701 
     31 F3          1.6982   13.8552    7.0037 F         1 <0>        -0.1701 
     32 H1         10.6384   10.3165    1.3066 H         1 <0>         0.0773 
     33 H2          9.2723   10.8661    0.3148 H         1 <0>         0.0773 
     34 H3         10.7221   11.8488    0.4340 H         1 <0>         0.0773 
     35 H4          7.5045   11.2774    1.8383 H         1 <0>         0.1404 
     36 H5          6.5574   12.3498    3.7873 H         1 <0>         0.1389 
     37 H6         10.4316   13.8720    4.8423 H         1 <0>         0.1390 
     38 H7         12.2251   11.9320    2.2051 H         1 <0>         0.1639 
     39 H8         12.3895   14.3363    4.1054 H         1 <0>         0.1545 
     40 H9         14.3650   11.9481    1.8432 H         1 <0>         0.2020 
     41 H10        15.9103   16.6084    6.0319 H         1 <0>         0.1590 
     42 H11        18.3949   14.4143    3.5104 H         1 <0>         0.1819 
     43 H12         6.0179   13.5214    5.1167 H         1 <0>         0.3025 
     44 H13         4.0690   13.4107    6.3179 H         1 <0>         0.1570 
     45 H14         3.6560   16.1203    9.6358 H         1 <0>         0.1618 
     46 H15         6.0312   16.7826    9.2949 H         1 <0>         0.1740 
@<TRIPOS>BOND
     1    1    2 1    
     2    1   32 1    
     3    1   33 1    
     4    1   34 1    
     5    2    7 ar   
     6    2    3 ar   
     7    3    4 ar   
     8    3   35 1    
     9    4    5 ar   
    10    4   36 1    
    11    5    6 ar   
    12    5   19 1    
    13    6    7 ar   
    14    6   37 1    
    15    7    8 1    
    16    8    9 2    
    17    8   38 1    
    18    9   10 1    
    19    9   39 1    
    20   10   14 ar   
    21   10   11 ar   
    22   11   12 ar   
    23   11   40 1    
    24   12   13 ar   
    25   13   18 ar   
    26   13   14 ar   
    27   14   15 ar   
    28   15   16 ar   
    29   16   17 ar   
    30   16   41 1    
    31   17   18 ar   
    32   18   42 1    
    33   19   20 2    
    34   19   21 am   BACKBONE|DICT|INTERRES
    35   21   22 1    
    36   21   43 1    
    37   22   27 ar   
    38   22   23 ar   
    39   23   24 ar   
    40   23   44 1    
    41   24   25 ar   
    42   24   28 1    
    43   25   26 ar   
    44   25   45 1    
    45   26   27 ar   
    46   26   46 1    
    47   28   29 1    
    48   28   30 1    
    49   28   31 1    
@<TRIPOS>SUBSTRUCTURE
     1 <0>         1 GROUP             0       ****    0 ROOT    
@<TRIPOS>MOLECULE
CHEMBL191003
39   41    1
SMALL
USER_CHARGES


@<TRIPOS>ATOM
      1 C1          6.0584   15.7134    6.1079 C.ar      1 <0>        -0.0536 
      2 C2          6.7066   14.5841    6.6055 C.ar      1 <0>        -0.1850 
      3 C3          7.4146   13.7421    5.7483 C.ar      1 <0>         0.2336 
      4 C4          7.4839   14.0326    4.3778 C.ar      1 <0>        -0.2571 
      5 C5          6.8444   15.1785    3.8835 C.ar      1 <0>         0.2336 
      6 C6          6.1310   16.0101    4.7475 C.ar      1 <0>        -0.1850 
      7 F1          6.9147   15.5040    2.5701 F         1 <0>        -0.1523 
      8 C7          8.2105   13.1068    3.4403 C.2       1 <0>         0.4955 
      9 O1          7.5729   12.3153    2.7444 O.2       1 <0>        -0.3959 
     10 N1          9.6393   13.1777    3.3835 N.pl3     1 <0>         0.0104 
     11 C8         10.5092   12.4443    2.6008 C.ar      1 <0>         0.3289 
     12 N2         11.7410   12.7905    2.8544 N.2       1 <0>        -0.2351 
     13 C9         11.6175   13.7252    3.7828 C.ar      1 <0>         0.2493 
     14 N3         10.3836   14.0055    4.1391 N.2       1 <0>        -0.2772 
     15 N4         12.6601   14.3903    4.3869 N.pl3     1 <0>        -0.5768 
     16 C10        14.0362   14.4181    4.0976 C.ar      1 <0>         0.3063 
     17 C11        14.6501   13.6388    3.1110 C.ar      1 <0>        -0.1953 
     18 C12        16.0232   13.7073    2.9274 C.ar      1 <0>         0.0022 
     19 C13        16.7875   14.5659    3.7213 C.ar      1 <0>        -0.2596 
     20 C14        16.1927   15.3754    4.6753 C.ar      1 <0>         0.0022 
     21 C15        14.8279   15.2751    4.8651 C.ar      1 <0>        -0.1953 
     22 S1         18.5483   14.4645    3.6907 S.o2      1 <0>         0.9866 
     23 O2         19.0070   14.5812    5.0788 O.2       1 <0>        -0.4975 
     24 O3         18.8318   13.2905    2.8645 O.2       1 <0>        -0.4975 
     25 N5         19.1322   15.8744    2.8645 N.pl3     1 <0>        -0.7974 
     26 N6         10.1572   11.4741    1.7030 N.pl3     1 <0>        -0.8049 
     27 F2          8.0331   12.6523    6.2618 F         1 <0>        -0.1523 
     28 H1          5.5054   16.3575    6.7759 H         1 <0>         0.1565 
     29 H2          6.6512   14.3477    7.6586 H         1 <0>         0.1645 
     30 H3          5.6346   16.8879    4.3601 H         1 <0>         0.1645 
     31 H4         12.4422   14.9562    5.1910 H         1 <0>         0.3314 
     32 H5         14.1060   12.9464    2.4919 H         1 <0>         0.1522 
     33 H6         16.4841   13.0451    2.2106 H         1 <0>         0.1522 
     34 H7         16.7853   16.0129    5.3170 H         1 <0>         0.1522 
     35 H8         14.4316   15.8535    5.6643 H         1 <0>         0.1522 
     36 H9         19.7817   15.6182    2.1106 H         1 <0>         0.3620 
     37 H10        19.5533   16.5482    3.5067 H         1 <0>         0.3620 
     38 H11         9.2197   11.0922    1.6971 H         1 <0>         0.3597 
     39 H12        10.8560   10.9560    1.1898 H         1 <0>         0.3597 
@<TRIPOS>BOND
     1    1    6 ar   
     2    1    2 ar   
     3    1   28 1    
     4    2    3 ar   
     5    2   29 1    
     6    3    4 ar   
     7    3   27 1    
     8    4    5 ar   
     9    4    8 1    
    10    5    6 ar   
    11    5    7 1    
    12    6   30 1    
    13    8    9 2    
    14    8   10 1    
    15   10   14 ar   
    16   10   11 ar   
    17   11   12 ar   
    18   11   26 1    
    19   12   13 ar   
    20   13   14 ar   
    21   13   15 1    
    22   15   16 1    
    23   15   31 1    
    24   16   21 ar   
    25   16   17 ar   
    26   17   18 ar   
    27   17   32 1    
    28   18   19 ar   
    29   18   33 1    
    30   19   20 ar   
    31   19   22 1    
    32   20   21 ar   
    33   20   34 1    
    34   21   35 1    
    35   22   23 2    
    36   22   24 2    
    37   22   25 1    
    38   25   36 1    
    39   25   37 1    
    40   26   38 1    
    41   26   39 1    
@<TRIPOS>SUBSTRUCTURE
     1 <0>         1 GROUP             0       ****    0 ROOT    
@<TRIPOS>MOLECULE
CHEMBL1170747
37   40    1
SMALL
USER_CHARGES


@<TRIPOS>ATOM
      1 C1          9.4537   12.9086    3.3383 C.ar      1 <0>        -0.0975 
      2 C2         10.7657   12.8696    2.8651 C.ar      1 <0>        -0.0964 
      3 C3         11.8185   13.4733    3.5773 C.ar      1 <0>         0.0537 
      4 C4         11.4946   14.1621    4.7459 C.ar      1 <0>        -0.0964 
      5 C5         10.1901   14.1911    5.2391 C.ar      1 <0>        -0.0975 
      6 C6          9.1647   13.5498    4.5444 C.ar      1 <0>        -0.1896 
      7 C7          7.7363   13.5849    5.0757 C.3       1 <0>         0.0180 
      8 N1          7.4087   12.4530    6.0648 N.4       1 <0>        -0.3128 
      9 C8         13.2571   13.3225    3.1651 C.ar      1 <0>        -0.0324 
     10 C9         14.3294   14.0950    3.6572 C.ar      1 <0>        -0.3402 
     11 N2         15.6177   13.7116    3.3378 N.pl3     1 <0>         0.4117 
     12 C10        16.8805   14.1727    3.6648 C.ar      1 <0>        -0.3284 
     13 C11        17.7569   13.2284    3.1275 C.ar      1 <0>         0.0796 
     14 N3         17.1690   12.2639    2.4642 N.2       1 <0>        -0.3694 
     15 C12        15.8591   12.5916    2.5260 C.ar      1 <0>         0.2057 
     16 C13        14.7486   11.9856    1.9474 C.ar      1 <0>        -0.1165 
     17 N4         13.4848   12.3148    2.2873 N.2       1 <0>        -0.1938 
     18 C14        17.2313   15.3213    4.4688 C.ar      1 <0>        -0.1774 
     19 C15        18.3511   16.1178    4.2960 C.ar      1 <0>        -0.1484 
     20 N5         18.3208   17.0219    5.3206 N.pl3     1 <0>        -0.0750 
     21 H1         19.0158   17.7352    5.4825 H         1 <0>         0.2923 
     22 N6         17.2626   16.8693    6.1203 N.2       1 <0>        -0.1625 
     23 C16        16.6085   15.8535    5.6088 C.ar      1 <0>        -0.0905 
     24 H2          8.6740   12.4142    2.7755 H         1 <0>         0.1384 
     25 H3         10.9628   12.3313    1.9487 H         1 <0>         0.1640 
     26 H4         12.2845   14.6533    5.2832 H         1 <0>         0.1640 
     27 H5          9.9867   14.6999    6.1694 H         1 <0>         0.1384 
     28 H6          7.5202   14.5037    5.6246 H         1 <0>         0.1281 
     29 H7          7.0023   13.4692    4.2744 H         1 <0>         0.1281 
     30 H8          6.4303   12.4698    6.3224 H         1 <0>         0.3194 
     31 H9          7.6049   11.5527    5.6500 H         1 <0>         0.3194 
     32 H10        14.2301   14.9409    4.3170 H         1 <0>         0.2457 
     33 H11        18.8326   13.2513    3.2230 H         1 <0>         0.1820 
     34 H12        14.8324   11.1534    1.2637 H         1 <0>         0.2119 
     35 H13        19.1550   16.1039    3.5738 H         1 <0>         0.2140 
     36 H14        15.7101   15.4806    6.0782 H         1 <0>         0.1906 
     37 H15         7.9326   12.5464    6.9248 H         1 <0>         0.3194 
@<TRIPOS>BOND
     1    1    6 ar   
     2    1    2 ar   
     3    1   24 1    
     4    2    3 ar   
     5    2   25 1    
     6    3    4 ar   
     7    3    9 1    
     8    4    5 ar   
     9    4   26 1    
    10    5    6 ar   
    11    5   27 1    
    12    6    7 1    
    13    7    8 1    
    14    7   28 1    
    15    7   29 1    
    16    8   30 1    
    17    8   31 1    
    18    8   37 1    
    19    9   17 ar   
    20    9   10 ar   
    21   10   11 ar   
    22   10   32 1    
    23   11   15 ar   
    24   11   12 ar   
    25   12   13 ar   
    26   12   18 1    
    27   13   14 ar   
    28   13   33 1    
    29   14   15 ar   
    30   15   16 ar   
    31   16   17 ar   
    32   16   34 1    
    33   18   23 ar   
    34   18   19 ar   
    35   19   20 ar   
    36   19   35 1    
    37   20   21 1    
    38   20   22 ar   
    39   22   23 ar   
    40   23   36 1    
@<TRIPOS>SUBSTRUCTURE
     1 <0>         1 GROUP             0       ****    0 ROOT    
@<TRIPOS>MOLECULE
CHEMBL1213924
53   56    1
SMALL
USER_CHARGES


@<TRIPOS>ATOM
      1 C1         10.1367   13.8510    6.5717 C.3       1 <0>        -0.1232 
      2 C2          9.8541   13.5259    5.1057 C.ar      1 <0>        -0.1049 
      3 C3          8.5562   13.1332    4.7549 C.ar      1 <0>        -0.0969 
      4 C4          8.2533   12.7588    3.4463 C.ar      1 <0>        -0.1397 
      5 C5          9.2502   12.7790    2.4641 C.ar      1 <0>         0.0695 
      6 C6         10.5393   13.1708    2.8118 C.ar      1 <0>        -0.1515 
      7 C7         10.8625   13.5524    4.1185 C.ar      1 <0>         0.2265 
      8 N1         12.1700   13.9773    4.4284 N.pl3     1 <0>        -0.6028 
      9 C8         13.4050   13.7001    3.8205 C.ar      1 <0>         0.3652 
     10 N2         13.5143   12.6536    2.9621 N.ar      1 <0>        -0.3197 
     11 C9         14.7396   12.4134    2.4369 C.ar      1 <0>         0.0703 
     12 C10        15.8567   13.1775    2.7694 C.ar      1 <0>        -0.2672 
     13 C11        15.6719   14.2400    3.6677 C.ar      1 <0>         0.1614 
     14 N3         14.4341   14.5024    4.1874 N.ar      1 <0>        -0.3056 
     15 C12        16.8118   15.0540    4.2113 C.ar      1 <0>        -0.0927 
     16 C13        16.6509   15.9060    5.3219 C.ar      1 <0>        -0.0611 
     17 C14        17.7242   16.6454    5.8190 C.ar      1 <0>        -0.1818 
     18 C15        18.9622   16.5165    5.1950 C.ar      1 <0>        -0.0084 
     19 N4         19.1639   15.7040    4.1309 N.ar      1 <0>        -0.2500 
     20 C16        18.1062   14.9929    3.6656 C.ar      1 <0>         0.0108 
     21 N5          9.0416   12.3969    1.1297 N.am      1 <0>        -0.3154 
     22 C17         7.9582   12.6563    0.3755 C.2       1 <0>         0.4700 
     23 O1          6.9679   13.2665    0.7815 O.2       1 <0>        -0.5330 
     24 N6          8.1320   12.1895   -0.8798 N.am      1 <0>        -0.3352 
     25 C18         7.2852   12.2987   -2.0016 C.ar      1 <0>         0.0560 
     26 C19         5.9772   12.8068   -1.9683 C.ar      1 <0>        -0.0843 
     27 C20         5.2379   12.9238   -3.1422 C.ar      1 <0>        -0.1247 
     28 C21         5.7805   12.5309   -4.3638 C.ar      1 <0>         0.1181 
     29 C22         7.0795   11.9928   -4.4182 C.ar      1 <0>        -0.0922 
     30 C23         7.8164   11.8837   -3.2279 C.ar      1 <0>        -0.0689 
     31 C24         7.6918   11.5291   -5.7443 C.3       1 <0>         0.4687 
     32 F1          8.8454   10.8828   -5.5776 F         1 <0>        -0.1702 
     33 F2          6.8645   10.6959   -6.3772 F         1 <0>        -0.1702 
     34 F3          7.9150   12.5833   -6.5289 F         1 <0>        -0.1702 
     35 Cl1         4.8095   12.7418   -5.7814 Cl        1 <0>        -0.1258 
     36 H1         10.0313   14.9192    6.7526 H         1 <0>         0.0747 
     37 H2          9.4619   13.3233    7.2499 H         1 <0>         0.0747 
     38 H3         11.1421   13.5443    6.8603 H         1 <0>         0.0747 
     39 H4          7.7761   13.0956    5.5028 H         1 <0>         0.1379 
     40 H5          7.2501   12.4372    3.2069 H         1 <0>         0.1385 
     41 H6         11.2870   13.2090    2.0350 H         1 <0>         0.1525 
     42 H7         12.2295   14.6823    5.1447 H         1 <0>         0.3287 
     43 H8         14.8121   11.5754    1.7579 H         1 <0>         0.1671 
     44 H9         16.8213   12.9227    2.3612 H         1 <0>         0.1619 
     45 H10        15.6933   16.0054    5.8130 H         1 <0>         0.1409 
     46 H11        17.5955   17.2990    6.6687 H         1 <0>         0.1474 
     47 H12        19.8227   17.0669    5.5461 H         1 <0>         0.1613 
     48 H13        18.3422   14.3608    2.8256 H         1 <0>         0.1639 
     49 H14         9.8464   12.0080    0.6624 H         1 <0>         0.2406 
     50 H15         9.0139   11.7415   -1.0745 H         1 <0>         0.2477 
     51 H16         5.5103   13.1277   -1.0514 H         1 <0>         0.1514 
     52 H17         4.2382   13.3324   -3.1019 H         1 <0>         0.1554 
     53 H18         8.8311   11.5086   -3.2624 H         1 <0>         0.1600 
@<TRIPOS>BOND
     1    1    2 1    
     2    1   36 1    
     3    1   37 1    
     4    1   38 1    
     5    2    7 ar   
     6    2    3 ar   
     7    3    4 ar   
     8    3   39 1    
     9    4    5 ar   
    10    4   40 1    
    11    5    6 ar   
    12    5   21 1    
    13    6    7 ar   
    14    6   41 1    
    15    7    8 1    
    16    8    9 1    
    17    8   42 1    
    18    9   14 ar   
    19    9   10 ar   
    20   10   11 ar   
    21   11   12 ar   
    22   11   43 1    
    23   12   13 ar   
    24   12   44 1    
    25   13   14 ar   
    26   13   15 1    
    27   15   20 ar   
    28   15   16 ar   
    29   16   17 ar   
    30   16   45 1    
    31   17   18 ar   
    32   17   46 1    
    33   18   19 ar   
    34   18   47 1    
    35   19   20 ar   
    36   20   48 1    
    37   21   22 am   BACKBONE|DICT|INTERRES
    38   21   49 1    
    39   22   23 2    
    40   22   24 am   BACKBONE|DICT|INTERRES
    41   24   25 1    
    42   24   50 1    
    43   25   30 ar   
    44   25   26 ar   
    45   26   27 ar   
    46   26   51 1    
    47   27   28 ar   
    48   27   52 1    
    49   28   29 ar   
    50   28   35 1    
    51   29   30 ar   
    52   29   31 1    
    53   30   53 1    
    54   31   32 1    
    55   31   33 1    
    56   31   34 1    
@<TRIPOS>SUBSTRUCTURE
     1 <0>         1 GROUP             0       ****    0 ROOT    
@<TRIPOS>MOLECULE
CHEMBL219964
57   60    1
SMALL
USER_CHARGES


@<TRIPOS>ATOM
      1 C1         17.4361   12.4207    3.0225 C.3       1 <0>        -0.0048 
      2 N1         17.1725   13.8028    3.6576 N.4       1 <0>        -0.4639 
      3 C2         18.4260   14.7034    3.5314 C.3       1 <0>        -0.0048 
      4 C3         15.9115   14.5271    3.1207 C.3       1 <0>         0.0667 
      5 C4         14.6000   13.8211    3.3672 C.2       1 <0>        -0.0894 
      6 C5         13.4450   14.2038    4.0322 C.2       1 <0>        -0.0930 
      7 C6         12.4184   13.3367    3.6421 C.2       1 <0>        -0.0746 
      8 C7         13.0600   12.3570    2.8889 C.2       1 <0>         0.0439 
      9 O1         14.3653   12.6701    2.6907 O.3       1 <0>        -0.1604 
     10 C8         10.9582   13.4536    3.9456 C.ar      1 <0>        -0.0418 
     11 C9         10.5717   13.8536    5.2254 C.ar      1 <0>        -0.1257 
     12 C10         9.2069   13.9304    5.5811 C.ar      1 <0>         0.1142 
     13 C11         8.2028   13.6711    4.6007 C.ar      1 <0>         0.0513 
     14 C12         8.6311   13.2439    3.3145 C.ar      1 <0>        -0.2477 
     15 C13         9.9875   13.1087    2.9931 C.ar      1 <0>         0.1773 
     16 O2         10.4145   12.6528    1.7584 O.3       1 <0>        -0.3779 
     17 C14         9.4929   11.9834    0.9030 C.3       1 <0>         0.1340 
     18 C15         6.8231   13.8221    4.9829 C.ar      1 <0>         0.2605 
     19 C16         6.5397   14.1413    6.3262 C.ar      1 <0>        -0.0570 
     20 C17         7.5969   14.3294    7.2116 C.ar      1 <0>         0.0749 
     21 N2          8.9008   14.2540    6.8639 N.ar      1 <0>        -0.2678 
     22 C18         5.1811   14.3288    6.8360 C.1       1 <0>         0.2455 
     23 N3          4.1062   14.4832    7.2341 N.1       1 <0>        -0.3841 
     24 N4          5.7624   13.6616    4.0643 N.pl3     1 <0>        -0.6498 
     25 C19         5.6411   14.2044    2.7762 C.ar      1 <0>         0.2317 
     26 C20         6.0359   15.5262    2.5458 C.ar      1 <0>        -0.1916 
     27 C21         5.9135   16.1100    1.2741 C.ar      1 <0>         0.1633 
     28 C22         5.4149   15.3292    0.2232 C.ar      1 <0>         0.0417 
     29 C23         5.0445   14.0024    0.4413 C.ar      1 <0>        -0.0664 
     30 C24         5.1501   13.4366    1.7110 C.ar      1 <0>         0.0237 
     31 Cl1         4.6725   11.7862    1.9253 Cl        1 <0>        -0.1209 
     32 Cl2         5.2301   15.9943   -1.3620 Cl        1 <0>        -0.1127 
     33 O3          6.2433   17.4242    0.9979 O.3       1 <0>        -0.3568 
     34 C25         6.6830   18.2740    2.0523 C.3       1 <0>         0.1354 
     35 H1         18.3599   12.0243    3.4473 H         1 <0>         0.1258 
     36 H2         16.5963   11.7748    3.2752 H         1 <0>         0.1258 
     37 H3         17.5313   12.5573    1.9461 H         1 <0>         0.1258 
     38 H4         18.6995   14.7860    2.4773 H         1 <0>         0.1258 
     39 H5         18.1915   15.6808    3.9562 H         1 <0>         0.1258 
     40 H6         19.2310   14.2427    4.1017 H         1 <0>         0.1258 
     41 H7         15.9159   15.4538    3.6798 H         1 <0>         0.1356 
     42 H8         16.0322   14.7501    2.0639 H         1 <0>         0.1356 
     43 H9         13.3233   15.1003    4.6230 H         1 <0>         0.1875 
     44 H10        12.7089   11.4641    2.3859 H         1 <0>         0.2020 
     45 H11        11.3188   14.0442    5.9808 H         1 <0>         0.1562 
     46 H12         7.8827   12.9859    2.5850 H         1 <0>         0.1521 
     47 H13         8.9806   11.1679    1.4176 H         1 <0>         0.0494 
     48 H14         8.7535   12.6740    0.4946 H         1 <0>         0.0494 
     49 H15        10.0318   11.5478    0.0645 H         1 <0>         0.0494 
     50 H16         7.4027   14.5507    8.2521 H         1 <0>         0.1808 
     51 H17         4.8799   13.3921    4.4784 H         1 <0>         0.3256 
     52 H18         6.4141   16.0995    3.3778 H         1 <0>         0.1478 
     53 H19         4.6647   13.4105   -0.3788 H         1 <0>         0.1712 
     54 H20         5.9455   18.3432    2.8542 H         1 <0>         0.0397 
     55 H21         7.6315   17.9297    2.4638 H         1 <0>         0.0397 
     56 H22         6.8364   19.2805    1.6632 H         1 <0>         0.0397 
     57 H23        17.0175   13.6532    4.6463 H         1 <0>         0.3107 
@<TRIPOS>BOND
     1    1    2 1    
     2    1   35 1    
     3    1   36 1    
     4    1   37 1    
     5    2    3 1    
     6    2    4 1    
     7    2   57 1    
     8    3   38 1    
     9    3   39 1    
    10    3   40 1    
    11    4    5 1    
    12    4   41 1    
    13    4   42 1    
    14    5    9 1    
    15    5    6 2    
    16    6    7 1    
    17    6   43 1    
    18    7    8 2    
    19    7   10 1    
    20    8    9 1    
    21    8   44 1    
    22   10   15 ar   
    23   10   11 ar   
    24   11   12 ar   
    25   11   45 1    
    26   12   21 ar   
    27   12   13 ar   
    28   13   14 ar   
    29   13   18 ar   
    30   14   15 ar   
    31   14   46 1    
    32   15   16 1    
    33   16   17 1    
    34   17   47 1    
    35   17   48 1    
    36   17   49 1    
    37   18   19 ar   
    38   18   24 1    
    39   19   20 ar   
    40   19   22 1    
    41   20   21 ar   
    42   20   50 1    
    43   22   23 3    
    44   24   25 1    
    45   24   51 1    
    46   25   30 ar   
    47   25   26 ar   
    48   26   27 ar   
    49   26   52 1    
    50   27   28 ar   
    51   27   33 1    
    52   28   29 ar   
    53   28   32 1    
    54   29   30 ar   
    55   29   53 1    
    56   30   31 1    
    57   33   34 1    
    58   34   54 1    
    59   34   55 1    
    60   34   56 1    
@<TRIPOS>SUBSTRUCTURE
     1 <0>         1 GROUP             0       ****    0 ROOT    
@<TRIPOS>MOLECULE
CHEMBL293991
55   58    1
SMALL
USER_CHARGES


@<TRIPOS>ATOM
      1 C1          6.2805   12.3739    4.8503 C.ar      1 <0>        -0.0669 
      2 C2          7.6325   12.5791    4.5816 C.ar      1 <0>        -0.1878 
      3 C3          8.1464   13.8744    4.4592 C.ar      1 <0>         0.2465 
      4 C4          7.2693   14.9551    4.5791 C.ar      1 <0>        -0.1788 
      5 C5          5.9140   14.7728    4.8512 C.ar      1 <0>         0.1779 
      6 C6          5.4243   13.4650    4.9913 C.ar      1 <0>        -0.2022 
      7 O1          5.1570   15.9240    4.9612 O.3       1 <0>        -0.3397 
      8 C7          3.7840   15.8666    5.3548 C.3       1 <0>         0.3720 
      9 C8          3.3054   17.3262    5.4635 C.3       1 <0>         0.3756 
     10 F1          2.0296   17.4365    5.8373 F         1 <0>        -0.1973 
     11 F2          4.0531   18.0736    6.2779 F         1 <0>        -0.1973 
     12 F3          3.0726   15.2318    4.4205 F         1 <0>        -0.1404 
     13 F4          3.6526   15.2553    6.5345 F         1 <0>        -0.1404 
     14 N1          9.5203   14.1103    4.2482 N.pl3     1 <0>        -0.6039 
     15 C9         10.4165   13.3916    3.4421 C.ar      1 <0>         0.3592 
     16 N2          9.8861   12.5644    2.5051 N.ar      1 <0>        -0.2967 
     17 C10        10.7544   11.8690    1.7427 C.ar      1 <0>         0.0680 
     18 C11        12.1290   12.0073    1.8880 C.ar      1 <0>        -0.2698 
     19 C12        12.6330   12.8834    2.8639 C.ar      1 <0>         0.1470 
     20 N3         11.7540   13.5842    3.6504 N.ar      1 <0>        -0.2961 
     21 C13        14.1271   13.1050    3.0253 C.ar      1 <0>        -0.1347 
     22 C14        15.0544   12.2636    2.3789 C.ar      1 <0>        -0.1295 
     23 C15        16.4308   12.4440    2.4645 C.ar      1 <0>        -0.1498 
     24 C16        16.9988   13.4686    3.1949 C.ar      1 <0>        -0.2646 
     25 C17        16.1240   14.3239    3.8579 C.ar      1 <0>         0.0842 
     26 C18        14.6932   14.1556    3.8009 C.ar      1 <0>         0.2893 
     27 C19        14.1680   15.1902    4.6377 C.ar      1 <0>        -0.4502 
     28 C20        15.2318   15.8532    5.2098 C.ar      1 <0>        -0.1545 
     29 N4         16.4131   15.3756    4.7149 N.pl3     1 <0>        -0.0952 
     30 C21        17.7430   15.8472    5.0944 C.3       1 <0>        -0.0019 
     31 C22        18.4850   16.4763    3.8962 C.3       1 <0>        -0.2071 
     32 C23        19.9818   16.6766    4.1701 C.3       1 <0>        -0.0427 
     33 N5         20.6879   17.0535    2.8638 N.4       1 <0>        -0.3141 
     34 H1          5.8985   11.3681    4.9530 H         1 <0>         0.1415 
     35 H2          8.2757   11.7202    4.4655 H         1 <0>         0.1456 
     36 H3          7.6316   15.9610    4.4651 H         1 <0>         0.1594 
     37 H4          4.3841   13.2724    5.2040 H         1 <0>         0.1452 
     38 H5          3.3703   17.8052    4.4869 H         1 <0>         0.0993 
     39 H6          9.9676   14.7029    4.9291 H         1 <0>         0.3301 
     40 H7         10.3332   11.1996    1.0054 H         1 <0>         0.1712 
     41 H8         12.7672   11.4403    1.2383 H         1 <0>         0.1580 
     42 H9         14.7222   11.4536    1.7571 H         1 <0>         0.1689 
     43 H10        17.1075   11.7957    1.9362 H         1 <0>         0.1632 
     44 H11        18.0725   13.5733    3.2552 H         1 <0>         0.1571 
     45 H12        13.1321   15.3984    4.8529 H         1 <0>         0.2506 
     46 H13        15.2333   16.6542    5.9318 H         1 <0>         0.2057 
     47 H14        17.6637   16.5532    5.9233 H         1 <0>         0.1013 
     48 H15        18.2879   14.9835    5.4803 H         1 <0>         0.1013 
     49 H16        18.3656   15.8613    3.0040 H         1 <0>         0.1029 
     50 H17        18.0315   17.4393    3.6621 H         1 <0>         0.1029 
     51 H18        20.1872   17.4865    4.8719 H         1 <0>         0.1330 
     52 H19        20.4848   15.7638    4.4963 H         1 <0>         0.1330 
     53 H20        21.6668   17.2344    3.0367 H         1 <0>         0.3240 
     54 H21        20.6274   16.2888    2.2008 H         1 <0>         0.3240 
     55 H22        20.2757   17.8767    2.4505 H         1 <0>         0.3240 
@<TRIPOS>BOND
     1    1    6 ar   
     2    1    2 ar   
     3    1   34 1    
     4    2    3 ar   
     5    2   35 1    
     6    3    4 ar   
     7    3   14 1    
     8    4    5 ar   
     9    4   36 1    
    10    5    6 ar   
    11    5    7 1    
    12    6   37 1    
    13    7    8 1    
    14    8    9 1    
    15    8   12 1    
    16    8   13 1    
    17    9   10 1    
    18    9   11 1    
    19    9   38 1    
    20   14   15 1    
    21   14   39 1    
    22   15   20 ar   
    23   15   16 ar   
    24   16   17 ar   
    25   17   18 ar   
    26   17   40 1    
    27   18   19 ar   
    28   18   41 1    
    29   19   20 ar   
    30   19   21 1    
    31   21   26 ar   
    32   21   22 ar   
    33   22   23 ar   
    34   22   42 1    
    35   23   24 ar   
    36   23   43 1    
    37   24   25 ar   
    38   24   44 1    
    39   25   29 ar   
    40   25   26 ar   
    41   26   27 ar   
    42   27   28 ar   
    43   27   45 1    
    44   28   29 ar   
    45   28   46 1    
    46   29   30 1    
    47   30   31 1    
    48   30   47 1    
    49   30   48 1    
    50   31   32 1    
    51   31   49 1    
    52   31   50 1    
    53   32   33 1    
    54   32   51 1    
    55   32   52 1    
    56   33   53 1    
    57   33   54 1    
    58   33   55 1    
@<TRIPOS>SUBSTRUCTURE
     1 <0>         1 GROUP             0       ****    0 ROOT    
@<TRIPOS>MOLECULE
CHEMBL1172720
46   49    1
SMALL
USER_CHARGES


@<TRIPOS>ATOM
      1 C1          9.7711   11.7149    1.8955 C.3       1 <0>        -0.1307 
      2 C2          9.1483   12.4397    3.0874 C.ar      1 <0>        -0.0371 
      3 C3          7.7876   12.2554    3.3453 C.ar      1 <0>        -0.1374 
      4 C4          7.1767   12.8686    4.4375 C.ar      1 <0>        -0.0861 
      5 C5          7.9143   13.6898    5.3056 C.ar      1 <0>        -0.1734 
      6 C6          9.2845   13.8588    5.0493 C.ar      1 <0>        -0.0720 
      7 C7          9.9033   13.2560    3.9506 C.ar      1 <0>         0.0793 
      8 C8         11.3379   13.4540    3.7647 C.1       1 <0>        -0.1370 
      9 C9         12.5445   13.5140    3.5889 C.1       1 <0>        -0.1043 
     10 C10        13.9739   13.4655    3.3210 C.ar      1 <0>        -0.2707 
     11 C11        14.6659   12.6194    2.4546 C.ar      1 <0>         0.0902 
     12 N1         15.9670   12.8053    2.4337 N.2       1 <0>        -0.4155 
     13 C12        16.1638   13.8317    3.2945 C.ar      1 <0>         0.2141 
     14 N2         14.9568   14.2477    3.8926 N.pl3     1 <0>         0.4360 
     15 N3         14.8223   15.1973    4.8448 N.2       1 <0>        -0.3001 
     16 C13        15.9878   15.7661    5.2506 C.ar      1 <0>         0.0358 
     17 C14        17.2370   15.4538    4.7084 C.ar      1 <0>        -0.2971 
     18 C15        17.3391   14.4851    3.7043 C.ar      1 <0>        -0.1398 
     19 C16         7.2766   14.4042    6.4823 C.2       1 <0>         0.5529 
     20 O1          7.9781   15.0509    7.2644 O.2       1 <0>        -0.4953 
     21 N4          5.9328   14.3277    6.5927 N.am      1 <0>        -0.3917 
     22 C17         5.1323   15.0326    7.5064 C.ar      1 <0>         0.0244 
     23 C18         4.0317   14.3706    8.0543 C.ar      1 <0>        -0.0916 
     24 C19         3.1986   15.0273    8.9587 C.ar      1 <0>        -0.1298 
     25 C20         3.4512   16.3538    9.3089 C.ar      1 <0>        -0.0777 
     26 C21         4.5415   17.0389    8.7558 C.ar      1 <0>        -0.1009 
     27 C22         5.3762   16.3708    7.8525 C.ar      1 <0>        -0.0716 
     28 C23         4.8340   18.4956    9.1135 C.3       1 <0>         0.4662 
     29 F1          3.9287   19.0033    9.9524 F         1 <0>        -0.1746 
     30 F2          6.0318   18.5846    9.6915 F         1 <0>        -0.1746 
     31 F3          4.8355   19.2380    8.0060 F         1 <0>        -0.1746 
     32 H1         10.5925   11.0793    2.2283 H         1 <0>         0.0771 
     33 H2          9.0556   11.0792    1.3728 H         1 <0>         0.0771 
     34 H3         10.1807   12.4323    1.1839 H         1 <0>         0.0771 
     35 H4          7.1963   11.6175    2.7039 H         1 <0>         0.1405 
     36 H5          6.1231   12.6854    4.5888 H         1 <0>         0.1409 
     37 H6          9.8805   14.4740    5.7111 H         1 <0>         0.1469 
     38 H7         14.2071   11.8540    1.8422 H         1 <0>         0.1689 
     39 H8         15.8994   16.5126    6.0277 H         1 <0>         0.1716 
     40 H9         18.1241   15.9564    5.0675 H         1 <0>         0.1905 
     41 H10        18.2984   14.2159    3.2845 H         1 <0>         0.2012 
     42 H11         5.4591   13.6452    6.0239 H         1 <0>         0.3065 
     43 H12         3.8351   13.3365    7.8069 H         1 <0>         0.1449 
     44 H13         2.3599   14.5022    9.3923 H         1 <0>         0.1437 
     45 H14         2.7927   16.8423   10.0125 H         1 <0>         0.1481 
     46 H15         6.2105   16.9019    7.4166 H         1 <0>         0.1501 
@<TRIPOS>BOND
     1    1    2 1    
     2    1   32 1    
     3    1   33 1    
     4    1   34 1    
     5    2    7 ar   
     6    2    3 ar   
     7    3    4 ar   
     8    3   35 1    
     9    4    5 ar   
    10    4   36 1    
    11    5    6 ar   
    12    5   19 1    
    13    6    7 ar   
    14    6   37 1    
    15    7    8 1    
    16    8    9 3    
    17    9   10 1    
    18   10   14 ar   
    19   10   11 ar   
    20   11   12 ar   
    21   11   38 1    
    22   12   13 ar   
    23   13   18 ar   
    24   13   14 ar   
    25   14   15 ar   
    26   15   16 ar   
    27   16   17 ar   
    28   16   39 1    
    29   17   18 ar   
    30   17   40 1    
    31   18   41 1    
    32   19   20 2    
    33   19   21 am   BACKBONE|DICT|INTERRES
    34   21   22 1    
    35   21   42 1    
    36   22   27 ar   
    37   22   23 ar   
    38   23   24 ar   
    39   23   43 1    
    40   24   25 ar   
    41   24   44 1    
    42   25   26 ar   
    43   25   45 1    
    44   26   27 ar   
    45   26   28 1    
    46   27   46 1    
    47   28   29 1    
    48   28   30 1    
    49   28   31 1    
@<TRIPOS>SUBSTRUCTURE
     1 <0>         1 GROUP             0       ****    0 ROOT    
@<TRIPOS>MOLECULE
CHEMBL1172719
71   76    1
SMALL
USER_CHARGES


@<TRIPOS>ATOM
      1 C1          6.1686   13.6486    3.8906 C.3       1 <0>        -0.1323 
      2 C2          7.6759   13.5256    3.6847 C.ar      1 <0>        -0.0327 
      3 C3          8.5362   14.1757    4.5757 C.ar      1 <0>        -0.1357 
      4 C4          9.9218   14.0910    4.4253 C.ar      1 <0>        -0.0892 
      5 C5         10.4752   13.3407    3.3774 C.ar      1 <0>        -0.1791 
      6 C6          9.6110   12.6889    2.4893 C.ar      1 <0>        -0.0736 
      7 C7          8.2258   12.7756    2.6289 C.ar      1 <0>         0.0863 
      8 C8          7.4184   12.0511    1.6553 C.1       1 <0>        -0.1517 
      9 C9          6.8701   11.3882    0.7902 C.1       1 <0>        -0.0894 
     10 C10         6.3489   10.5502   -0.2797 C.ar      1 <0>        -0.2808 
     11 C11         5.0391   10.1477   -0.5478 C.ar      1 <0>         0.0912 
     12 N1          4.9171    9.3730   -1.6063 N.2       1 <0>        -0.4122 
     13 C12         6.1864    9.2381   -2.0652 C.ar      1 <0>         0.2164 
     14 N2          7.1012    9.9561   -1.2730 N.pl3     1 <0>         0.4404 
     15 N3          8.4352   10.0338   -1.4659 N.2       1 <0>        -0.3078 
     16 C13         8.8953    9.3335   -2.5331 C.ar      1 <0>         0.0403 
     17 C14         8.0877    8.5812   -3.3852 C.ar      1 <0>        -0.2936 
     18 C15         6.7096    8.5259   -3.1596 C.ar      1 <0>        -0.1394 
     19 C16        11.9631   13.1547    3.2113 C.2       1 <0>         0.5572 
     20 O1         12.3760   12.1317    2.6695 O.2       1 <0>        -0.4934 
     21 N4         12.7615   14.1459    3.6653 N.am      1 <0>        -0.4079 
     22 C17        14.1667   14.2118    3.5988 C.ar      1 <0>         0.0585 
     23 C18        14.9461   13.4560    2.7113 C.ar      1 <0>        -0.1200 
     24 C19        16.3307   13.5149    2.7734 C.ar      1 <0>        -0.1000 
     25 C20        16.9763   14.3123    3.7135 C.ar      1 <0>        -0.1036 
     26 C21        16.2032   15.0510    4.6398 C.ar      1 <0>        -0.0376 
     27 C22        14.8061   15.0530    4.5064 C.ar      1 <0>        -0.1146 
     28 C23        16.8082   15.5084    5.9685 C.3       1 <0>        -0.1296 
     29 C24        15.9863   15.4659    7.2390 C.3       1 <0>        -0.1738 
     30 C25        16.4373   16.7884    6.6430 C.3       1 <0>        -0.1738 
     31 C26        18.4934   14.1821    3.8123 C.3       1 <0>         0.1545 
     32 N5         19.1923   15.4512    4.0234 N.3       1 <0>        -0.7137 
     33 C27        19.1256   16.3336    2.8484 C.3       1 <0>         0.0512 
     34 C28        19.8073   17.6845    3.1482 C.3       1 <0>         0.0630 
     35 N6         21.2435   17.4675    3.6821 N.4       1 <0>        -0.4455 
     36 C29        21.2473   16.4992    4.8845 C.3       1 <0>         0.0630 
     37 C30        20.5623   15.1865    4.4771 C.3       1 <0>         0.0512 
     38 C31        21.8994   18.8027    4.0915 C.3       1 <0>        -0.0088 
     39 H1          5.7345   12.6694    4.1032 H         1 <0>         0.0798 
     40 H2          5.9135   14.3269    4.7071 H         1 <0>         0.0798 
     41 H3          5.6976   14.0252    2.9806 H         1 <0>         0.0798 
     42 H4          8.1264   14.7305    5.4072 H         1 <0>         0.1428 
     43 H5         10.5499   14.5880    5.1499 H         1 <0>         0.1374 
     44 H6         10.0209   12.0923    1.6817 H         1 <0>         0.1456 
     45 H7          4.1735   10.4225    0.0401 H         1 <0>         0.1676 
     46 H8          9.9603    9.3939   -2.7052 H         1 <0>         0.1732 
     47 H9          8.5287    8.0497   -4.2165 H         1 <0>         0.1935 
     48 H10         6.0624    7.9548   -3.8087 H         1 <0>         0.2037 
     49 H11        12.3076   14.9068    4.1441 H         1 <0>         0.3106 
     50 H12        14.5039   12.8153    1.9653 H         1 <0>         0.1512 
     51 H13        16.9093   12.9017    2.0976 H         1 <0>         0.1376 
     52 H14        14.1985   15.5978    5.2128 H         1 <0>         0.1510 
     53 H15        17.8334   15.1805    6.1275 H         1 <0>         0.0933 
     54 H16        14.9342   15.1876    7.2004 H         1 <0>         0.1069 
     55 H17        16.4472   15.0537    8.1320 H         1 <0>         0.1069 
     56 H18        17.1817   17.3660    7.1954 H         1 <0>         0.1069 
     57 H19        15.7662   17.4135    6.0590 H         1 <0>         0.1069 
     58 H20        18.6722   13.5140    4.6569 H         1 <0>         0.0854 
     59 H21        18.8968   13.6793    2.9308 H         1 <0>         0.0854 
     60 H22        19.6400   15.8461    2.0218 H         1 <0>         0.1042 
     61 H23        18.0968   16.5096    2.5300 H         1 <0>         0.1042 
     62 H24        19.9212   18.2449    2.2222 H         1 <0>         0.1303 
     63 H25        19.2571   18.2539    3.8986 H         1 <0>         0.1303 
     64 H26        22.2934   16.3093    5.1329 H         1 <0>         0.1303 
     65 H27        20.7439   16.9895    5.7204 H         1 <0>         0.1303 
     66 H28        20.5675   14.5149    5.3378 H         1 <0>         0.1042 
     67 H29        21.1128   14.7087    3.6651 H         1 <0>         0.1042 
     68 H30        21.2486   19.2952    4.8137 H         1 <0>         0.1252 
     69 H31        22.8652   18.5717    4.5400 H         1 <0>         0.1252 
     70 H32        22.0311   19.4073    3.1958 H         1 <0>         0.1252 
     71 H33        21.7839   17.0291    2.9478 H         1 <0>         0.3077 
@<TRIPOS>BOND
     1    1    2 1    
     2    1   39 1    
     3    1   40 1    
     4    1   41 1    
     5    2    7 ar   
     6    2    3 ar   
     7    3    4 ar   
     8    3   42 1    
     9    4    5 ar   
    10    4   43 1    
    11    5    6 ar   
    12    5   19 1    
    13    6    7 ar   
    14    6   44 1    
    15    7    8 1    
    16    8    9 3    
    17    9   10 1    
    18   10   14 ar   
    19   10   11 ar   
    20   11   12 ar   
    21   11   45 1    
    22   12   13 ar   
    23   13   18 ar   
    24   13   14 ar   
    25   14   15 ar   
    26   15   16 ar   
    27   16   17 ar   
    28   16   46 1    
    29   17   18 ar   
    30   17   47 1    
    31   18   48 1    
    32   19   20 2    
    33   19   21 am   BACKBONE|DICT|INTERRES
    34   21   22 1    
    35   21   49 1    
    36   22   27 ar   
    37   22   23 ar   
    38   23   24 ar   
    39   23   50 1    
    40   24   25 ar   
    41   24   51 1    
    42   25   26 ar   
    43   25   31 1    
    44   26   27 ar   
    45   26   28 1    
    46   27   52 1    
    47   28   30 1    
    48   28   29 1    
    49   28   53 1    
    50   29   30 1    
    51   29   54 1    
    52   29   55 1    
    53   30   56 1    
    54   30   57 1    
    55   31   32 1    
    56   31   58 1    
    57   31   59 1    
    58   32   37 1    
    59   32   33 1    
    60   33   34 1    
    61   33   60 1    
    62   33   61 1    
    63   34   35 1    
    64   34   62 1    
    65   34   63 1    
    66   35   36 1    
    67   35   38 1    
    68   35   71 1    
    69   36   37 1    
    70   36   64 1    
    71   36   65 1    
    72   37   66 1    
    73   37   67 1    
    74   38   68 1    
    75   38   69 1    
    76   38   70 1    
@<TRIPOS>SUBSTRUCTURE
     1 <0>         1 GROUP             0       ****    0 ROOT    
@<TRIPOS>MOLECULE
CHEMBL1172719
71   76    1
SMALL
USER_CHARGES


@<TRIPOS>ATOM
      1 C1         10.0410   14.2119    6.7366 C.3       1 <0>        -0.1333 
      2 C2          9.8520   13.8531    5.2717 C.ar      1 <0>        -0.0291 
      3 C3          8.5781   13.4299    4.9003 C.ar      1 <0>        -0.1337 
      4 C4          8.3418   12.9106    3.6332 C.ar      1 <0>        -0.0890 
      5 C5          9.3832   12.7960    2.7010 C.ar      1 <0>        -0.1837 
      6 C6         10.6492   13.2985    3.0537 C.ar      1 <0>        -0.0740 
      7 C7         10.8995   13.8333    4.3239 C.ar      1 <0>         0.0906 
      8 C8         12.2682   14.2633    4.6186 C.1       1 <0>        -0.1598 
      9 C9         13.4238   14.6228    4.8052 C.1       1 <0>        -0.0807 
     10 C10        14.8167   14.9942    5.0492 C.ar      1 <0>        -0.2860 
     11 C11        15.3890   15.4568    6.2311 C.ar      1 <0>         0.0924 
     12 N1         16.6635   15.7622    6.1467 N.2       1 <0>        -0.4096 
     13 C12        17.0310   15.1951    4.9768 C.ar      1 <0>         0.2173 
     14 N2         15.9185   14.6616    4.2843 N.pl3     1 <0>         0.4422 
     15 N3         15.9710   13.8566    3.2095 N.2       1 <0>        -0.3118 
     16 C13        17.2298   13.4836    2.8648 C.ar      1 <0>         0.0422 
     17 C14        18.3940   14.0323    3.4021 C.ar      1 <0>        -0.2924 
     18 C15        18.3085   14.9404    4.4557 C.ar      1 <0>        -0.1390 
     19 C16         9.1748   12.1288    1.3567 C.2       1 <0>         0.5607 
     20 O1         10.0217   12.2514    0.4681 O.2       1 <0>        -0.4889 
     21 N4          8.0340   11.4144    1.2247 N.am      1 <0>        -0.4230 
     22 C17         7.6291   10.6025    0.1545 C.ar      1 <0>         0.0952 
     23 C18         8.5262    9.9211   -0.6723 C.ar      1 <0>        -0.1177 
     24 C19         8.0594    9.0743   -1.6734 C.ar      1 <0>        -0.1049 
     25 C20         6.6859    8.8903   -1.8673 C.ar      1 <0>        -0.1625 
     26 C21         5.7738    9.5674   -1.0375 C.ar      1 <0>        -0.0035 
     27 C22         6.2579   10.4170   -0.0342 C.ar      1 <0>        -0.1148 
     28 C23         4.2645    9.4059   -1.2280 C.3       1 <0>        -0.1512 
     29 C24         3.2540    9.6056   -0.1191 C.3       1 <0>        -0.1685 
     30 C25         3.5045    8.2196   -0.6682 C.3       1 <0>        -0.1685 
     31 C26         6.2263    7.9425   -2.9690 C.3       1 <0>         0.0959 
     32 N5          5.6267    6.6211   -2.4351 N.4       1 <0>        -0.4384 
     33 C27         6.6688    5.7692   -1.6664 C.3       1 <0>         0.0633 
     34 C28         5.9902    4.4813   -1.1481 C.3       1 <0>         0.0429 
     35 N6          5.3822    3.7221   -2.2499 N.3       1 <0>        -0.6952 
     36 C29         4.3782    4.5028   -2.9851 C.3       1 <0>         0.0429 
     37 C30         5.0029    5.7877   -3.5780 C.3       1 <0>         0.0633 
     38 C31         4.7914    2.4840   -1.7498 C.3       1 <0>         0.0461 
     39 H1         10.0312   15.2840    6.9017 H         1 <0>         0.0815 
     40 H2          9.2542   13.7646    7.3431 H         1 <0>         0.0815 
     41 H3         10.9832   13.8090    7.1121 H         1 <0>         0.0815 
     42 H4          7.7619   13.4477    5.6110 H         1 <0>         0.1451 
     43 H5          7.3418   12.5654    3.4178 H         1 <0>         0.1370 
     44 H6         11.4622   13.2307    2.3418 H         1 <0>         0.1446 
     45 H7         14.8350   15.6318    7.1449 H         1 <0>         0.1679 
     46 H8         17.3018   12.7722    2.0592 H         1 <0>         0.1737 
     47 H9         19.3576   13.7311    3.0200 H         1 <0>         0.1945 
     48 H10        19.1969   15.3227    4.9362 H         1 <0>         0.2049 
     49 H11         7.3916   11.4505    2.0015 H         1 <0>         0.3193 
     50 H12         9.5887   10.0030   -0.5167 H         1 <0>         0.1619 
     51 H13         8.7767    8.5532   -2.2878 H         1 <0>         0.1323 
     52 H14         5.5618   10.9451    0.5999 H         1 <0>         0.1633 
     53 H15         3.9423    9.7312   -2.2232 H         1 <0>         0.1042 
     54 H16         3.5914    9.8250    0.8968 H         1 <0>         0.1121 
     55 H17         2.3167   10.1108   -0.3629 H         1 <0>         0.1121 
     56 H18         2.7379    7.7482   -1.2898 H         1 <0>         0.1121 
     57 H19         4.0273    7.4994   -0.0310 H         1 <0>         0.1121 
     58 H20         5.4453    8.4067   -3.5751 H         1 <0>         0.1221 
     59 H21         7.0421    7.6565   -3.6354 H         1 <0>         0.1221 
     60 H22         7.5024    5.5653   -2.3390 H         1 <0>         0.1305 
     61 H23         7.0065    6.3760   -0.8235 H         1 <0>         0.1305 
     62 H24         6.7274    3.8720   -0.6182 H         1 <0>         0.1014 
     63 H25         5.1964    4.7521   -0.4489 H         1 <0>         0.1014 
     64 H26         3.9430    3.9073   -3.7919 H         1 <0>         0.1014 
     65 H27         3.5857    4.7795   -2.2875 H         1 <0>         0.1014 
     66 H28         4.2253    6.4110   -4.0241 H         1 <0>         0.1305 
     67 H29         5.7857    5.5768   -4.3092 H         1 <0>         0.1305 
     68 H30         3.9684    2.6821   -1.0601 H         1 <0>         0.0841 
     69 H31         4.4055    1.8766   -2.5686 H         1 <0>         0.0841 
     70 H32         5.5347    1.8769   -1.2307 H         1 <0>         0.0841 
     71 H33         4.8872    6.8639   -1.7904 H         1 <0>         0.2979 
@<TRIPOS>BOND
     1    1    2 1    
     2    1   39 1    
     3    1   40 1    
     4    1   41 1    
     5    2    7 ar   
     6    2    3 ar   
     7    3    4 ar   
     8    3   42 1    
     9    4    5 ar   
    10    4   43 1    
    11    5    6 ar   
    12    5   19 1    
    13    6    7 ar   
    14    6   44 1    
    15    7    8 1    
    16    8    9 3    
    17    9   10 1    
    18   10   14 ar   
    19   10   11 ar   
    20   11   12 ar   
    21   11   45 1    
    22   12   13 ar   
    23   13   18 ar   
    24   13   14 ar   
    25   14   15 ar   
    26   15   16 ar   
    27   16   17 ar   
    28   16   46 1    
    29   17   18 ar   
    30   17   47 1    
    31   18   48 1    
    32   19   20 2    
    33   19   21 am   BACKBONE|DICT|INTERRES
    34   21   22 1    
    35   21   49 1    
    36   22   27 ar   
    37   22   23 ar   
    38   23   24 ar   
    39   23   50 1    
    40   24   25 ar   
    41   24   51 1    
    42   25   26 ar   
    43   25   31 1    
    44   26   27 ar   
    45   26   28 1    
    46   27   52 1    
    47   28   30 1    
    48   28   29 1    
    49   28   53 1    
    50   29   30 1    
    51   29   54 1    
    52   29   55 1    
    53   30   56 1    
    54   30   57 1    
    55   31   32 1    
    56   31   58 1    
    57   31   59 1    
    58   32   37 1    
    59   32   33 1    
    60   32   71 1    
    61   33   34 1    
    62   33   60 1    
    63   33   61 1    
    64   34   35 1    
    65   34   62 1    
    66   34   63 1    
    67   35   36 1    
    68   35   38 1    
    69   36   37 1    
    70   36   64 1    
    71   36   65 1    
    72   37   66 1    
    73   37   67 1    
    74   38   68 1    
    75   38   69 1    
    76   38   70 1    
@<TRIPOS>SUBSTRUCTURE
     1 <0>         1 GROUP             0       ****    0 ROOT    
@<TRIPOS>MOLECULE
CHEMBL364623
41   43    1
SMALL
USER_CHARGES


@<TRIPOS>ATOM
      1 C1         21.3722   14.3214    6.2423 C.3       1 <0>        -0.1255 
      2 C2         21.4292   15.7844    5.9033 C.ar      1 <0>        -0.0555 
      3 C3         22.5960   16.4809    6.2257 C.ar      1 <0>        -0.1246 
      4 C4         22.7404   17.8235    5.8945 C.ar      1 <0>        -0.1121 
      5 C5         21.6935   18.4846    5.2635 C.ar      1 <0>        -0.1239 
      6 C6         20.5109   17.8025    4.9739 C.ar      1 <0>         0.0848 
      7 C7         20.3622   16.4436    5.2837 C.ar      1 <0>         0.0315 
      8 N1         19.1777   15.7463    4.9528 N.am      1 <0>        -0.3727 
      9 C8         17.9800   16.0269    5.5078 C.2       1 <0>         0.4785 
     10 O1         17.8306   16.7873    6.4643 O.2       1 <0>        -0.4906 
     11 C9         16.8167   15.4539    4.8946 C.2       1 <0>        -0.2350 
     12 C10        15.5049   15.7100    5.2683 C.2       1 <0>        -0.0697 
     13 N2         14.5612   15.0583    4.6331 N.2       1 <0>        -0.1467 
     14 C11        15.0457   14.2418    3.7325 C.2       1 <0>         0.1399 
     15 S1         16.7879   14.2834    3.5932 S.3       1 <0>         0.1680 
     16 N3         14.3074   13.3649    2.9661 N.pl3     1 <0>        -0.5175 
     17 C12        12.9148   13.1447    2.9829 C.ar      1 <0>         0.3677 
     18 C13        12.3903   12.2387    2.0619 C.ar      1 <0>        -0.2940 
     19 C14        11.0071   12.0315    2.0606 C.ar      1 <0>         0.0840 
     20 N4         10.1743   12.6852    2.9101 N.ar      1 <0>        -0.2563 
     21 C15        10.7719   13.5436    3.7734 C.ar      1 <0>         0.1190 
     22 N5         12.1009   13.8094    3.8535 N.ar      1 <0>        -0.3291 
     23 C16         9.8712   14.2394    4.7701 C.3       1 <0>        -0.1094 
     24 C17        10.3477   11.0519    1.1094 C.3       1 <0>        -0.1259 
     25 Cl1        19.2318   18.6537    4.2278 Cl        1 <0>        -0.1479 
     26 H1         22.1573   13.8537    5.6583 H         1 <0>         0.0753 
     27 H2         21.6280   14.1725    7.2807 H         1 <0>         0.0753 
     28 H3         20.4081   13.8520    6.0648 H         1 <0>         0.0753 
     29 H4         23.4083   15.9654    6.7219 H         1 <0>         0.1387 
     30 H5         23.6532   18.3491    6.1354 H         1 <0>         0.1395 
     31 H6         21.8009   19.5290    5.0152 H         1 <0>         0.1472 
     32 H7         19.2353   15.0683    4.2083 H         1 <0>         0.3036 
     33 H8         15.2315   16.3868    6.0634 H         1 <0>         0.1933 
     34 H9         14.7710   12.7831    2.2858 H         1 <0>         0.3312 
     35 H10        13.0267   11.6978    1.3762 H         1 <0>         0.1603 
     36 H11         9.5274   13.5302    5.5238 H         1 <0>         0.0893 
     37 H12        10.3937   15.0524    5.2702 H         1 <0>         0.0893 
     38 H13         8.9951   14.6514    4.2710 H         1 <0>         0.0893 
     39 H14         9.7648   10.3136    1.6622 H         1 <0>         0.0850 
     40 H15         9.6760   11.5778    0.4306 H         1 <0>         0.0850 
     41 H16        11.0784   10.5093    0.5081 H         1 <0>         0.0850 
@<TRIPOS>BOND
     1    1    2 1    
     2    1   26 1    
     3    1   27 1    
     4    1   28 1    
     5    2    7 ar   
     6    2    3 ar   
     7    3    4 ar   
     8    3   29 1    
     9    4    5 ar   
    10    4   30 1    
    11    5    6 ar   
    12    5   31 1    
    13    6    7 ar   
    14    6   25 1    
    15    7    8 1    
    16    8    9 am   BACKBONE|DICT|INTERRES
    17    8   32 1    
    18    9   10 2    
    19    9   11 1    
    20   11   15 1    
    21   11   12 2    
    22   12   13 1    
    23   12   33 1    
    24   13   14 2    
    25   14   15 1    
    26   14   16 1    
    27   16   17 1    
    28   16   34 1    
    29   17   22 ar   
    30   17   18 ar   
    31   18   19 ar   
    32   18   35 1    
    33   19   20 ar   
    34   19   24 1    
    35   20   21 ar   
    36   21   22 ar   
    37   21   23 1    
    38   23   36 1    
    39   23   37 1    
    40   23   38 1    
    41   24   39 1    
    42   24   40 1    
    43   24   41 1    
@<TRIPOS>SUBSTRUCTURE
     1 <0>         1 GROUP             0       ****    0 ROOT    
@<TRIPOS>MOLECULE
CHEMBL538337
79   83    1
SMALL
USER_CHARGES


@<TRIPOS>ATOM
      1 C1          9.2362   13.6274    6.6302 C.3       1 <0>        -0.1180 
      2 C2          8.8919   13.4532    5.1569 C.ar      1 <0>        -0.1436 
      3 C3          7.5746   13.1265    4.8098 C.ar      1 <0>        -0.0622 
      4 C4          7.2246   12.9025    3.4776 C.ar      1 <0>        -0.2022 
      5 C5          8.1923   13.0034    2.4739 C.ar      1 <0>         0.2732 
      6 C6          9.4894   13.3557    2.8222 C.ar      1 <0>        -0.2163 
      7 C7          9.8671   13.5626    4.1500 C.ar      1 <0>         0.2626 
      8 N1         11.2019   13.8884    4.4585 N.pl3     1 <0>        -0.6059 
      9 C8         12.3964   13.5439    3.8068 C.ar      1 <0>         0.3673 
     10 N2         12.3874   12.5621    2.8676 N.ar      1 <0>        -0.3225 
     11 C9         13.5686   12.2537    2.2857 C.ar      1 <0>         0.0718 
     12 C10        14.7564   12.8974    2.6275 C.ar      1 <0>        -0.2643 
     13 C11        14.6881   13.9037    3.6030 C.ar      1 <0>         0.1638 
     14 N3         13.5015   14.2227    4.2012 N.ar      1 <0>        -0.2992 
     15 C12        15.8931   14.6583    4.0645 C.ar      1 <0>        -0.1424 
     16 C13        17.1249   14.6074    3.3911 C.ar      1 <0>         0.0084 
     17 N4         18.2323   15.2760    3.8044 N.ar      1 <0>        -0.1807 
     18 C14        18.0967   16.0130    4.9329 C.ar      1 <0>        -0.0295 
     19 N5         16.9691   16.1402    5.6738 N.ar      1 <0>        -0.1807 
     20 C15        15.8853   15.4558    5.2249 C.ar      1 <0>         0.0084 
     21 N6          7.9586   12.7385    1.1170 N.pl3     1 <0>        -0.6712 
     22 C16         6.6796   12.3162    0.5642 C.3       1 <0>         0.3500 
     23 C17         6.9042   11.6097   -0.7743 C.ar      1 <0>        -0.0948 
     24 C18         7.7778   12.1212   -1.7410 C.ar      1 <0>        -0.0759 
     25 C19         8.0361   11.4071   -2.9059 C.ar      1 <0>        -0.1466 
     26 C20         7.4324   10.1657   -3.1350 C.ar      1 <0>        -0.0348 
     27 C21         6.4926    9.6675   -2.2018 C.ar      1 <0>        -0.0808 
     28 C22         6.2480   10.4035   -1.0310 C.ar      1 <0>        -0.0613 
     29 C23         5.7331    8.3467   -2.4108 C.3       1 <0>         0.4655 
     30 F1          4.6388    8.2793   -1.6477 F         1 <0>        -0.1719 
     31 F2          5.3277    8.2007   -3.6710 F         1 <0>        -0.1719 
     32 F3          6.5152    7.3154   -2.0848 F         1 <0>        -0.1719 
     33 C24         7.8908    9.3761   -4.3677 C.3       1 <0>         0.1455 
     34 N7          8.5752    8.1416   -3.9787 N.3       1 <0>        -0.6899 
     35 C25         9.8351    8.3549   -3.2825 C.3       1 <0>         0.0944 
     36 C26        10.5440    7.0012   -3.2919 C.3       1 <0>        -0.1430 
     37 C27         9.8179    6.1885   -4.3780 C.3       1 <0>        -0.1292 
     38 H1          9.1250    5.4851   -3.9096 H         1 <0>         0.1028 
     39 C28         8.9345    7.2414   -5.0604 C.3       1 <0>         0.1066 
     40 C29        10.7412    5.4009   -5.3354 C.3       1 <0>         0.0441 
     41 N8         11.8333    4.6166   -4.5611 N.4       1 <0>        -0.4479 
     42 C30        11.2691    3.5316   -3.6142 C.3       1 <0>        -0.0079 
     43 C31        12.8848    4.0151   -5.5183 C.3       1 <0>        -0.0079 
     44 O1          5.7595   13.3756    0.4560 O.3       1 <0>        -0.5926 
     45 H2          9.3177   14.6838    6.8905 H         1 <0>         0.0731 
     46 H3          8.4819   13.1580    7.2656 H         1 <0>         0.0731 
     47 H4         10.1873   13.1467    6.8653 H         1 <0>         0.0731 
     48 H5          6.8183   13.0275    5.5754 H         1 <0>         0.1372 
     49 H6          6.2055   12.6350    3.2426 H         1 <0>         0.1210 
     50 H7         10.2219   13.4525    2.0380 H         1 <0>         0.1435 
     51 H8         11.3232   14.5236    5.2309 H         1 <0>         0.3290 
     52 H9         13.5467   11.4564    1.5497 H         1 <0>         0.1673 
     53 H10        15.6793   12.6076    2.1517 H         1 <0>         0.1635 
     54 H11        17.2568   14.0340    2.4853 H         1 <0>         0.1688 
     55 H12        18.9706   16.5480    5.2722 H         1 <0>         0.1970 
     56 H13        14.9957   15.5593    5.8319 H         1 <0>         0.1688 
     57 H14         8.7475   12.7519    0.4878 H         1 <0>         0.3071 
     58 H15         6.2455   11.5865    1.2492 H         1 <0>         0.0696 
     59 H16         8.2998   13.0523   -1.5812 H         1 <0>         0.1508 
     60 H17         8.7568   11.8086   -3.6065 H         1 <0>         0.1310 
     61 H18         5.5610   10.0191   -0.2906 H         1 <0>         0.1574 
     62 H19         7.0274    9.1557   -4.9963 H         1 <0>         0.0856 
     63 H20         8.5491    9.9885   -4.9876 H         1 <0>         0.0856 
     64 H21        10.4297    9.1495   -3.7402 H         1 <0>         0.0867 
     65 H22         9.6328    8.7067   -2.2687 H         1 <0>         0.0867 
     66 H23        11.5946    7.1739   -3.5277 H         1 <0>         0.0813 
     67 H24        10.4307    6.5283   -2.3191 H         1 <0>         0.0813 
     68 H25         8.0433    6.8146   -5.5268 H         1 <0>         0.0791 
     69 H26         9.4278    7.7625   -5.8833 H         1 <0>         0.0791 
     70 H27        10.1993    4.6620   -5.9270 H         1 <0>         0.1234 
     71 H28        11.2767    6.0741   -6.0093 H         1 <0>         0.1234 
     72 H29        12.1210    3.0375   -3.1432 H         1 <0>         0.1262 
     73 H30        10.6598    4.0190   -2.8521 H         1 <0>         0.1262 
     74 H31        10.6844    2.8273   -4.2073 H         1 <0>         0.1262 
     75 H32        13.3048    4.8326   -6.1067 H         1 <0>         0.1262 
     76 H33        13.6592    3.5470   -4.9050 H         1 <0>         0.1262 
     77 H34        12.3829    3.2804   -6.1514 H         1 <0>         0.1262 
     78 H35         6.1607   14.0516   -0.0914 H         1 <0>         0.3923 
     79 H36        12.3151    5.2894   -3.9779 H         1 <0>         0.3096 
@<TRIPOS>BOND
     1    1    2 1    
     2    1   45 1    
     3    1   46 1    
     4    1   47 1    
     5    2    7 ar   
     6    2    3 ar   
     7    3    4 ar   
     8    3   48 1    
     9    4    5 ar   
    10    4   49 1    
    11    5    6 ar   
    12    5   21 1    
    13    6    7 ar   
    14    6   50 1    
    15    7    8 1    
    16    8    9 1    
    17    8   51 1    
    18    9   14 ar   
    19    9   10 ar   
    20   10   11 ar   
    21   11   12 ar   
    22   11   52 1    
    23   12   13 ar   
    24   12   53 1    
    25   13   14 ar   
    26   13   15 1    
    27   15   20 ar   
    28   15   16 ar   
    29   16   17 ar   
    30   16   54 1    
    31   17   18 ar   
    32   18   19 ar   
    33   18   55 1    
    34   19   20 ar   
    35   20   56 1    
    36   21   22 1    
    37   21   57 1    
    38   22   23 1    
    39   22   44 1    
    40   22   58 1    
    41   23   28 ar   
    42   23   24 ar   
    43   24   25 ar   
    44   24   59 1    
    45   25   26 ar   
    46   25   60 1    
    47   26   27 ar   
    48   26   33 1    
    49   27   28 ar   
    50   27   29 1    
    51   28   61 1    
    52   29   30 1    
    53   29   31 1    
    54   29   32 1    
    55   33   34 1    
    56   33   62 1    
    57   33   63 1    
    58   34   39 1    
    59   34   35 1    
    60   35   36 1    
    61   35   64 1    
    62   35   65 1    
    63   36   37 1    
    64   36   66 1    
    65   36   67 1    
    66   37   38 1    
    67   37   39 1    
    68   37   40 1    
    69   39   68 1    
    70   39   69 1    
    71   40   41 1    
    72   40   70 1    
    73   40   71 1    
    74   41   42 1    
    75   41   43 1    
    76   41   79 1    
    77   42   72 1    
    78   42   73 1    
    79   42   74 1    
    80   43   75 1    
    81   43   76 1    
    82   43   77 1    
    83   44   78 1    
@<TRIPOS>SUBSTRUCTURE
     1 <0>         1 GROUP             0       ****    0 ROOT    
@<TRIPOS>MOLECULE
CHEMBL538337
80   84    1
SMALL
USER_CHARGES


@<TRIPOS>ATOM
      1 C1          5.2594   11.6267   -5.5590 C.3       1 <0>        -0.1225 
      2 C2          6.6741   11.0719   -5.6806 C.ar      1 <0>        -0.1283 
      3 C3          7.0344   10.3782   -6.8433 C.ar      1 <0>        -0.0610 
      4 C4          8.3102    9.8255   -6.9773 C.ar      1 <0>        -0.1986 
      5 C5          9.2495    9.9860   -5.9531 C.ar      1 <0>         0.2518 
      6 C6          8.8926   10.6949   -4.8117 C.ar      1 <0>        -0.2094 
      7 C7          7.6098   11.2152   -4.6394 C.ar      1 <0>         0.2695 
      8 N1          7.2797   11.8829   -3.4465 N.pl3     1 <0>        -0.6071 
      9 C8          7.7370   11.6696   -2.1380 C.ar      1 <0>         0.3649 
     10 N2          8.3887   10.5162   -1.8368 N.ar      1 <0>        -0.3401 
     11 C9          8.8223   10.3767   -0.5622 C.ar      1 <0>         0.0752 
     12 C10         8.6011   11.3464    0.4159 C.ar      1 <0>        -0.2590 
     13 C11         7.9088   12.5065    0.0353 C.ar      1 <0>         0.1692 
     14 N3          7.4655   12.6540   -1.2493 N.ar      1 <0>        -0.2952 
     15 C12         7.6149   13.6329    0.9829 C.ar      1 <0>        -0.1507 
     16 C13         8.0988   13.6620    2.3037 C.ar      1 <0>         0.0077 
     17 N4          7.8409   14.6703    3.1766 N.ar      1 <0>        -0.1731 
     18 C14         7.0706   15.6814    2.7074 C.ar      1 <0>        -0.0288 
     19 N5          6.5565   15.7766    1.4584 N.ar      1 <0>        -0.1731 
     20 C15         6.8347   14.7462    0.6178 C.ar      1 <0>         0.0077 
     21 N6         10.5478    9.4538   -5.9694 N.pl3     1 <0>        -0.6704 
     22 C16        11.0602    8.5288   -6.9690 C.3       1 <0>         0.3454 
     23 C17        12.0156    7.4950   -6.3600 C.ar      1 <0>        -0.0391 
     24 C18        12.6936    7.7222   -5.1568 C.ar      1 <0>        -0.0707 
     25 C19        13.5112    6.7440   -4.6055 C.ar      1 <0>        -0.1173 
     26 C20        13.7008    5.5118   -5.2427 C.ar      1 <0>        -0.1338 
     27 C21        13.0364    5.2698   -6.4663 C.ar      1 <0>        -0.0741 
     28 C22        12.2064    6.2685   -7.0062 C.ar      1 <0>        -0.0535 
     29 C23        13.1856    3.9368   -7.2139 C.3       1 <0>         0.4624 
     30 F1         12.3638    3.8433   -8.2622 F         1 <0>        -0.1678 
     31 F2         14.4346    3.8149   -7.6652 F         1 <0>        -0.1678 
     32 F3         12.9184    2.9134   -6.4023 F         1 <0>        -0.1678 
     33 C24        14.5916    4.4483   -4.5820 C.3       1 <0>         0.0994 
     34 N7         15.6171    4.9552   -3.5368 N.4       1 <0>        -0.4363 
     35 C25        16.7566    5.8012   -4.1255 C.3       1 <0>         0.0375 
     36 C26        17.8200    5.7876   -3.0297 C.3       1 <0>        -0.1740 
     37 C27        17.5644    4.5360   -2.1597 C.3       1 <0>        -0.1466 
     38 H1         17.2718    4.8713   -1.1631 H         1 <0>         0.1168 
     39 C28        16.3342    3.8397   -2.7588 C.3       1 <0>         0.0347 
     40 C29        18.7777    3.5845   -2.0309 C.3       1 <0>         0.0472 
     41 N8         20.0389    4.3394   -1.5458 N.4       1 <0>        -0.4530 
     42 C30        19.9064    4.9174   -0.1191 C.3       1 <0>        -0.0045 
     43 C31        21.3135    3.4744   -1.6745 C.3       1 <0>        -0.0045 
     44 O1         11.6318    9.1930   -8.0674 O.3       1 <0>        -0.5895 
     45 H2          5.2634   12.7122   -5.6736 H         1 <0>         0.0790 
     46 H3          4.5829   11.1897   -6.2971 H         1 <0>         0.0790 
     47 H4          4.8376   11.3978   -4.5787 H         1 <0>         0.0790 
     48 H5          6.3230   10.2553   -7.6451 H         1 <0>         0.1435 
     49 H6          8.5591    9.2888   -7.8796 H         1 <0>         0.1167 
     50 H7          9.6339   10.8492   -4.0403 H         1 <0>         0.1425 
     51 H8          6.8161   12.7683   -3.5754 H         1 <0>         0.3317 
     52 H9          9.3233    9.4537   -0.3339 H         1 <0>         0.1672 
     53 H10         8.9572   11.1795    1.4196 H         1 <0>         0.1676 
     54 H11         8.7123   12.8707    2.7049 H         1 <0>         0.1679 
     55 H12         6.8294   16.4788    3.3923 H         1 <0>         0.2009 
     56 H13         6.4074   14.8313   -0.3698 H         1 <0>         0.1679 
     57 H14        11.2233    9.9540   -5.4066 H         1 <0>         0.3031 
     58 H15        10.2159    7.9579   -7.3562 H         1 <0>         0.0792 
     59 H16        12.5818    8.6606   -4.6320 H         1 <0>         0.1762 
     60 H17        13.9836    6.9621   -3.6617 H         1 <0>         0.1359 
     61 H18        11.6858    6.0953   -7.9371 H         1 <0>         0.1805 
     62 H19        13.9688    3.7385   -4.0359 H         1 <0>         0.1350 
     63 H20        15.1789    3.8909   -5.3120 H         1 <0>         0.1350 
     64 H21        17.0862    5.2963   -5.0365 H         1 <0>         0.1477 
     65 H22        16.3738    6.7867   -4.3888 H         1 <0>         0.1477 
     66 H23        18.8173    5.8220   -3.4712 H         1 <0>         0.1175 
     67 H24        17.6947    6.6905   -2.4280 H         1 <0>         0.1175 
     68 H25        15.6324    3.4334   -2.0245 H         1 <0>         0.1447 
     69 H26        16.5742    3.0496   -3.4737 H         1 <0>         0.1447 
     70 H27        18.6085    2.7666   -1.3238 H         1 <0>         0.1403 
     71 H28        19.0521    3.1637   -3.0025 H         1 <0>         0.1403 
     72 H29        19.7750    4.0885    0.5816 H         1 <0>         0.1353 
     73 H30        20.8316    5.4536    0.0640 H         1 <0>         0.1353 
     74 H31        19.0697    5.6163   -0.0879 H         1 <0>         0.1353 
     75 H32        21.4194    3.2054   -2.7268 H         1 <0>         0.1353 
     76 H33        22.1628    4.0791   -1.3474 H         1 <0>         0.1353 
     77 H34        21.1918    2.5875   -1.0463 H         1 <0>         0.1353 
     78 H35        12.5235    9.4560   -7.8058 H         1 <0>         0.4007 
     79 H36        20.1595    5.1355   -2.1634 H         1 <0>         0.3082 
     80 H37        15.1058    5.5150   -2.8703 H         1 <0>         0.3191 
@<TRIPOS>BOND
     1    1    2 1    
     2    1   45 1    
     3    1   46 1    
     4    1   47 1    
     5    2    7 ar   
     6    2    3 ar   
     7    3    4 ar   
     8    3   48 1    
     9    4    5 ar   
    10    4   49 1    
    11    5    6 ar   
    12    5   21 1    
    13    6    7 ar   
    14    6   50 1    
    15    7    8 1    
    16    8    9 1    
    17    8   51 1    
    18    9   14 ar   
    19    9   10 ar   
    20   10   11 ar   
    21   11   12 ar   
    22   11   52 1    
    23   12   13 ar   
    24   12   53 1    
    25   13   14 ar   
    26   13   15 1    
    27   15   20 ar   
    28   15   16 ar   
    29   16   17 ar   
    30   16   54 1    
    31   17   18 ar   
    32   18   19 ar   
    33   18   55 1    
    34   19   20 ar   
    35   20   56 1    
    36   21   22 1    
    37   21   57 1    
    38   22   23 1    
    39   22   44 1    
    40   22   58 1    
    41   23   28 ar   
    42   23   24 ar   
    43   24   25 ar   
    44   24   59 1    
    45   25   26 ar   
    46   25   60 1    
    47   26   27 ar   
    48   26   33 1    
    49   27   28 ar   
    50   27   29 1    
    51   28   61 1    
    52   29   30 1    
    53   29   31 1    
    54   29   32 1    
    55   33   34 1    
    56   33   62 1    
    57   33   63 1    
    58   34   39 1    
    59   34   35 1    
    60   34   80 1    
    61   35   36 1    
    62   35   64 1    
    63   35   65 1    
    64   36   37 1    
    65   36   66 1    
    66   36   67 1    
    67   37   38 1    
    68   37   39 1    
    69   37   40 1    
    70   39   68 1    
    71   39   69 1    
    72   40   41 1    
    73   40   70 1    
    74   40   71 1    
    75   41   42 1    
    76   41   43 1    
    77   41   79 1    
    78   42   72 1    
    79   42   73 1    
    80   42   74 1    
    81   43   75 1    
    82   43   76 1    
    83   43   77 1    
    84   44   78 1    
@<TRIPOS>SUBSTRUCTURE
     1 <0>         1 GROUP             0       ****    0 ROOT    
@<TRIPOS>MOLECULE
CHEMBL538337
79   83    1
SMALL
USER_CHARGES


@<TRIPOS>ATOM
      1 C1          2.1134   15.2961   -5.6460 C.3       1 <0>        -0.1178 
      2 C2          3.3323   14.3808   -5.6167 C.ar      1 <0>        -0.1442 
      3 C3          3.4514   13.3820   -6.5891 C.ar      1 <0>        -0.0621 
      4 C4          4.5501   12.5251   -6.5950 C.ar      1 <0>        -0.2021 
      5 C5          5.5524   12.6563   -5.6286 C.ar      1 <0>         0.2743 
      6 C6          5.4283   13.6492   -4.6600 C.ar      1 <0>        -0.2166 
      7 C7          4.3254   14.5097   -4.6301 C.ar      1 <0>         0.2622 
      8 N1          4.2369   15.5204   -3.6550 N.pl3     1 <0>        -0.6059 
      9 C8          4.7008   15.5521   -2.3334 C.ar      1 <0>         0.3673 
     10 N2          4.9790   14.3832   -1.6965 N.ar      1 <0>        -0.3220 
     11 C9          5.4435   14.4766   -0.4265 C.ar      1 <0>         0.0719 
     12 C10         5.6336   15.7034    0.2100 C.ar      1 <0>        -0.2642 
     13 C11         5.3090   16.8644   -0.5080 C.ar      1 <0>         0.1637 
     14 N3          4.8318   16.7863   -1.7846 N.ar      1 <0>        -0.2997 
     15 C12         5.5177   18.2359    0.0500 C.ar      1 <0>        -0.1420 
     16 C13         5.6309   18.4797    1.4288 C.ar      1 <0>         0.0085 
     17 N4          5.8495   19.7126    1.9554 N.ar      1 <0>        -0.1810 
     18 C14         5.9506   20.7304    1.0652 C.ar      1 <0>        -0.0295 
     19 N5          5.8499   20.6265   -0.2831 N.ar      1 <0>        -0.1810 
     20 C15         5.6316   19.3756   -0.7656 C.ar      1 <0>         0.0085 
     21 N6          6.6957   11.8419   -5.5804 N.pl3     1 <0>        -0.6725 
     22 C16         6.8729   10.6448   -6.3944 C.3       1 <0>         0.3503 
     23 C17         8.2726   10.0512   -6.2151 C.ar      1 <0>        -0.0937 
     24 C18         8.9146   10.0368   -4.9720 C.ar      1 <0>        -0.0732 
     25 C19        10.1688    9.4536   -4.8346 C.ar      1 <0>        -0.1407 
     26 C20        10.8107    8.8621   -5.9261 C.ar      1 <0>        -0.0343 
     27 C21        10.1857    8.8758   -7.1936 C.ar      1 <0>        -0.0819 
     28 C22         8.9161    9.4662   -7.3106 C.ar      1 <0>        -0.0619 
     29 C23        10.8502    8.2702   -8.4420 C.3       1 <0>         0.4657 
     30 F1         10.0782    8.3760   -9.5262 F         1 <0>        -0.1740 
     31 F2         11.9931    8.9036   -8.7124 F         1 <0>        -0.1740 
     32 F3         11.1048    6.9755   -8.2637 F         1 <0>        -0.1740 
     33 C24        12.1821    8.2344   -5.6792 C.3       1 <0>         0.1472 
     34 N7         12.1237    6.7797   -5.5301 N.3       1 <0>        -0.6909 
     35 C25        11.5306    6.3246   -4.2794 C.3       1 <0>         0.0952 
     36 C26        11.9396    4.8540   -4.1480 C.3       1 <0>        -0.1438 
     37 C27        13.2163    4.7363   -5.0042 C.3       1 <0>        -0.1289 
     38 H1         13.0112    4.1285   -5.8873 H         1 <0>         0.1038 
     39 C28        13.4418    6.1713   -5.4969 C.3       1 <0>         0.1071 
     40 C29        14.4680    4.1735   -4.2897 C.3       1 <0>         0.0440 
     41 N8         14.1970    2.8480   -3.5360 N.4       1 <0>        -0.4478 
     42 C30        13.6880    1.7082   -4.4440 C.3       1 <0>        -0.0079 
     43 C31        15.4481    2.4100   -2.7401 C.3       1 <0>        -0.0079 
     44 O1          5.8888    9.6688   -6.1446 O.3       1 <0>        -0.5902 
     45 H2          2.4182   16.3294   -5.8104 H         1 <0>         0.0728 
     46 H3          1.4032   15.0180   -6.4254 H         1 <0>         0.0728 
     47 H4          1.5908   15.2563   -4.6900 H         1 <0>         0.0728 
     48 H5          2.6909   13.2659   -7.3472 H         1 <0>         0.1370 
     49 H6          4.6138   11.7660   -7.3593 H         1 <0>         0.1213 
     50 H7          6.2116   13.7625   -3.9253 H         1 <0>         0.1434 
     51 H8          3.9602   16.4228   -4.0080 H         1 <0>         0.3285 
     52 H9          5.6764   13.5461    0.0721 H         1 <0>         0.1675 
     53 H10         6.0318   15.7357    1.2124 H         1 <0>         0.1635 
     54 H11         5.5429   17.6830    2.1518 H         1 <0>         0.1689 
     55 H12         6.1203   21.7184    1.4666 H         1 <0>         0.1968 
     56 H13         5.5618   19.2972   -1.8406 H         1 <0>         0.1689 
     57 H14         7.3827   12.0285   -4.8638 H         1 <0>         0.3074 
     58 H15         6.7737   10.9460   -7.4392 H         1 <0>         0.0688 
     59 H16         8.4491   10.4730   -4.1002 H         1 <0>         0.1529 
     60 H17        10.6426    9.4674   -3.8649 H         1 <0>         0.1349 
     61 H18         8.4068    9.4694   -8.2633 H         1 <0>         0.1563 
     62 H19        12.8316    8.4974   -6.5113 H         1 <0>         0.0813 
     63 H20        12.6522    8.6890   -4.8057 H         1 <0>         0.0813 
     64 H21        11.8469    6.9230   -3.4225 H         1 <0>         0.0861 
     65 H22        10.4481    6.4513   -4.3355 H         1 <0>         0.0861 
     66 H23        12.0767    4.5898   -3.0998 H         1 <0>         0.0805 
     67 H24        11.1375    4.2363   -4.5546 H         1 <0>         0.0805 
     68 H25        13.9128    6.2138   -6.4809 H         1 <0>         0.0793 
     69 H26        14.1237    6.7373   -4.8574 H         1 <0>         0.0793 
     70 H27        15.2744    3.9564   -4.9935 H         1 <0>         0.1237 
     71 H28        14.8411    4.8687   -3.5356 H         1 <0>         0.1237 
     72 H29        13.5261    0.8354   -3.8085 H         1 <0>         0.1262 
     73 H30        12.7429    2.0249   -4.8860 H         1 <0>         0.1262 
     74 H31        14.4454    1.5161   -5.2061 H         1 <0>         0.1262 
     75 H32        15.6337    3.1697   -1.9784 H         1 <0>         0.1262 
     76 H33        15.2320    1.4490   -2.2730 H         1 <0>         0.1262 
     77 H34        16.2856    2.3246   -3.4337 H         1 <0>         0.1262 
     78 H35         5.9062    9.4764   -5.2049 H         1 <0>         0.3926 
     79 H36        13.4711    3.0216   -2.8429 H         1 <0>         0.3098 
@<TRIPOS>BOND
     1    1    2 1    
     2    1   45 1    
     3    1   46 1    
     4    1   47 1    
     5    2    7 ar   
     6    2    3 ar   
     7    3    4 ar   
     8    3   48 1    
     9    4    5 ar   
    10    4   49 1    
    11    5    6 ar   
    12    5   21 1    
    13    6    7 ar   
    14    6   50 1    
    15    7    8 1    
    16    8    9 1    
    17    8   51 1    
    18    9   14 ar   
    19    9   10 ar   
    20   10   11 ar   
    21   11   12 ar   
    22   11   52 1    
    23   12   13 ar   
    24   12   53 1    
    25   13   14 ar   
    26   13   15 1    
    27   15   20 ar   
    28   15   16 ar   
    29   16   17 ar   
    30   16   54 1    
    31   17   18 ar   
    32   18   19 ar   
    33   18   55 1    
    34   19   20 ar   
    35   20   56 1    
    36   21   22 1    
    37   21   57 1    
    38   22   23 1    
    39   22   44 1    
    40   22   58 1    
    41   23   28 ar   
    42   23   24 ar   
    43   24   25 ar   
    44   24   59 1    
    45   25   26 ar   
    46   25   60 1    
    47   26   27 ar   
    48   26   33 1    
    49   27   28 ar   
    50   27   29 1    
    51   28   61 1    
    52   29   30 1    
    53   29   31 1    
    54   29   32 1    
    55   33   34 1    
    56   33   62 1    
    57   33   63 1    
    58   34   39 1    
    59   34   35 1    
    60   35   36 1    
    61   35   64 1    
    62   35   65 1    
    63   36   37 1    
    64   36   66 1    
    65   36   67 1    
    66   37   38 1    
    67   37   39 1    
    68   37   40 1    
    69   39   68 1    
    70   39   69 1    
    71   40   41 1    
    72   40   70 1    
    73   40   71 1    
    74   41   42 1    
    75   41   43 1    
    76   41   79 1    
    77   42   72 1    
    78   42   73 1    
    79   42   74 1    
    80   43   75 1    
    81   43   76 1    
    82   43   77 1    
    83   44   78 1    
@<TRIPOS>SUBSTRUCTURE
     1 <0>         1 GROUP             0       ****    0 ROOT    
@<TRIPOS>MOLECULE
CHEMBL538337
80   84    1
SMALL
USER_CHARGES


@<TRIPOS>ATOM
      1 C1         10.1884    0.8327   -3.4409 C.3       1 <0>        -0.1223 
      2 C2          9.1937    1.8618   -2.9115 C.ar      1 <0>        -0.1288 
      3 C3          7.9095    1.4403   -2.5570 C.ar      1 <0>        -0.0609 
      4 C4          6.9849    2.3438   -2.0414 C.ar      1 <0>        -0.1985 
      5 C5          7.3405    3.6830   -1.8430 C.ar      1 <0>         0.2529 
      6 C6          8.6145    4.1078   -2.2138 C.ar      1 <0>        -0.2096 
      7 C7          9.5413    3.2164   -2.7660 C.ar      1 <0>         0.2692 
      8 N1         10.8247    3.6487   -3.1361 N.pl3     1 <0>        -0.6070 
      9 C8         11.2728    4.8320   -3.7311 C.ar      1 <0>         0.3650 
     10 N2         10.3917    5.8117   -4.0711 N.ar      1 <0>        -0.3397 
     11 C9         10.9157    6.9251   -4.6384 C.ar      1 <0>         0.0753 
     12 C10        12.2804    7.0619   -4.9029 C.ar      1 <0>        -0.2589 
     13 C11        13.1114    5.9943   -4.5452 C.ar      1 <0>         0.1691 
     14 N3         12.6085    4.8845   -3.9421 N.ar      1 <0>        -0.2955 
     15 C12        14.5745    5.9823   -4.8138 C.ar      1 <0>        -0.1505 
     16 C13        15.1168    6.6170   -5.9397 C.ar      1 <0>         0.0078 
     17 N4         16.4381    6.5848   -6.2495 N.ar      1 <0>        -0.1734 
     18 C14        17.2297    5.8941   -5.3924 C.ar      1 <0>        -0.0288 
     19 N5         16.8261    5.2428   -4.2727 N.ar      1 <0>        -0.1734 
     20 C15        15.4977    5.2978   -4.0045 C.ar      1 <0>         0.0078 
     21 N6          6.4936    4.6289   -1.2412 N.pl3     1 <0>        -0.6718 
     22 C16         5.1056    4.3527   -0.8866 C.3       1 <0>         0.3457 
     23 C17         4.6135    5.2974    0.2067 C.ar      1 <0>        -0.0380 
     24 C18         4.9414    6.6541    0.2350 C.ar      1 <0>        -0.0684 
     25 C19         4.5761    7.4437    1.3223 C.ar      1 <0>        -0.1125 
     26 C20         3.8772    6.9018    2.4157 C.ar      1 <0>        -0.1332 
     27 C21         3.4261    5.5654    2.3235 C.ar      1 <0>        -0.0749 
     28 C22         3.8143    4.7815    1.2285 C.ar      1 <0>        -0.0534 
     29 C23         2.5126    4.9336    3.3781 C.3       1 <0>         0.4625 
     30 F1          1.9788    3.7743    2.9719 F         1 <0>        -0.1694 
     31 F2          3.2313    4.6900    4.4665 F         1 <0>        -0.1694 
     32 F3          1.5028    5.7475    3.6922 F         1 <0>        -0.1694 
     33 C24         3.6534    7.7404    3.6930 C.3       1 <0>         0.1010 
     34 N7          4.2800    9.1569    3.7052 N.4       1 <0>        -0.4364 
     35 C25         5.8138    9.2208    3.7999 C.3       1 <0>         0.0395 
     36 C26         6.0575   10.7212    3.9196 C.3       1 <0>        -0.1759 
     37 C27         4.8457   11.3052    4.6736 C.3       1 <0>        -0.1453 
     38 H1          4.3535   12.0242    4.0155 H         1 <0>         0.1175 
     39 C28         3.8684   10.1177    4.8426 C.3       1 <0>         0.0330 
     40 C29         5.2342   12.0395    5.9765 C.3       1 <0>         0.0469 
     41 N8          6.2408   13.1845    5.6518 N.4       1 <0>        -0.4528 
     42 C30         5.5764   14.4327    5.0075 C.3       1 <0>        -0.0045 
     43 C31         7.0990   13.6029    6.8630 C.3       1 <0>        -0.0045 
     44 O1          4.2497    4.3344   -2.0055 O.3       1 <0>        -0.5874 
     45 H2         11.0782    0.8138   -2.8105 H         1 <0>         0.0788 
     46 H3          9.7778   -0.1772   -3.4736 H         1 <0>         0.0788 
     47 H4         10.5128    1.1114   -4.4459 H         1 <0>         0.0788 
     48 H5          7.6240    0.4054   -2.6718 H         1 <0>         0.1434 
     49 H6          6.0073    1.9796   -1.7784 H         1 <0>         0.1171 
     50 H7          8.8968    5.1361   -2.0425 H         1 <0>         0.1423 
     51 H8         11.5660    3.1040   -2.6952 H         1 <0>         0.3312 
     52 H9         10.2322    7.7238   -4.8839 H         1 <0>         0.1673 
     53 H10        12.6655    7.9635   -5.3573 H         1 <0>         0.1676 
     54 H11        14.4823    7.1416   -6.6425 H         1 <0>         0.1680 
     55 H12        18.2826    5.8476   -5.6228 H         1 <0>         0.2007 
     56 H13        15.1748    4.7312   -3.1465 H         1 <0>         0.1680 
     57 H14         6.8052    5.5844   -1.2165 H         1 <0>         0.3032 
     58 H15         5.0658    3.3541   -0.4467 H         1 <0>         0.0786 
     59 H16         5.5130    7.0981   -0.5634 H         1 <0>         0.1778 
     60 H17         4.8792    8.4762    1.2986 H         1 <0>         0.1381 
     61 H18         3.5163    3.7402    1.1726 H         1 <0>         0.1798 
     62 H19         2.5877    7.9170    3.8609 H         1 <0>         0.1315 
     63 H20         4.0437    7.2279    4.5783 H         1 <0>         0.1315 
     64 H21         6.0972    8.6391    4.6806 H         1 <0>         0.1467 
     65 H22         6.2879    8.7549    2.9381 H         1 <0>         0.1467 
     66 H23         7.0228   10.9707    4.3599 H         1 <0>         0.1168 
     67 H24         6.0764   11.1281    2.9067 H         1 <0>         0.1168 
     68 H25         2.8124   10.3686    4.7191 H         1 <0>         0.1451 
     69 H26         3.9711    9.5633    5.7850 H         1 <0>         0.1451 
     70 H27         4.3904   12.4973    6.4981 H         1 <0>         0.1409 
     71 H28         5.7484   11.3579    6.6711 H         1 <0>         0.1409 
     72 H29         4.8233   14.8120    5.7059 H         1 <0>         0.1354 
     73 H30         6.3587   15.1808    4.8392 H         1 <0>         0.1354 
     74 H31         5.1260   14.1368    4.0590 H         1 <0>         0.1354 
     75 H32         7.5997   12.7136    7.2627 H         1 <0>         0.1354 
     76 H33         7.8411   14.3361    6.5282 H         1 <0>         0.1354 
     77 H34         6.4283   14.0379    7.6080 H         1 <0>         0.1354 
     78 H35         4.3622    5.1638   -2.4737 H         1 <0>         0.4010 
     79 H36         6.8877   12.7969    4.9735 H         1 <0>         0.3078 
     80 H37         3.9983    9.5750    2.8286 H         1 <0>         0.3192 
@<TRIPOS>BOND
     1    1    2 1    
     2    1   45 1    
     3    1   46 1    
     4    1   47 1    
     5    2    7 ar   
     6    2    3 ar   
     7    3    4 ar   
     8    3   48 1    
     9    4    5 ar   
    10    4   49 1    
    11    5    6 ar   
    12    5   21 1    
    13    6    7 ar   
    14    6   50 1    
    15    7    8 1    
    16    8    9 1    
    17    8   51 1    
    18    9   14 ar   
    19    9   10 ar   
    20   10   11 ar   
    21   11   12 ar   
    22   11   52 1    
    23   12   13 ar   
    24   12   53 1    
    25   13   14 ar   
    26   13   15 1    
    27   15   20 ar   
    28   15   16 ar   
    29   16   17 ar   
    30   16   54 1    
    31   17   18 ar   
    32   18   19 ar   
    33   18   55 1    
    34   19   20 ar   
    35   20   56 1    
    36   21   22 1    
    37   21   57 1    
    38   22   23 1    
    39   22   44 1    
    40   22   58 1    
    41   23   28 ar   
    42   23   24 ar   
    43   24   25 ar   
    44   24   59 1    
    45   25   26 ar   
    46   25   60 1    
    47   26   27 ar   
    48   26   33 1    
    49   27   28 ar   
    50   27   29 1    
    51   28   61 1    
    52   29   30 1    
    53   29   31 1    
    54   29   32 1    
    55   33   34 1    
    56   33   62 1    
    57   33   63 1    
    58   34   39 1    
    59   34   35 1    
    60   34   80 1    
    61   35   36 1    
    62   35   64 1    
    63   35   65 1    
    64   36   37 1    
    65   36   66 1    
    66   36   67 1    
    67   37   38 1    
    68   37   39 1    
    69   37   40 1    
    70   39   68 1    
    71   39   69 1    
    72   40   41 1    
    73   40   70 1    
    74   40   71 1    
    75   41   42 1    
    76   41   43 1    
    77   41   79 1    
    78   42   72 1    
    79   42   73 1    
    80   42   74 1    
    81   43   75 1    
    82   43   76 1    
    83   43   77 1    
    84   44   78 1    
@<TRIPOS>SUBSTRUCTURE
     1 <0>         1 GROUP             0       ****    0 ROOT    
@<TRIPOS>MOLECULE
CHEMBL1171282
68   72    1
SMALL
USER_CHARGES


@<TRIPOS>ATOM
      1 C1          9.6299    2.1973    0.1086 C.3       1 <0>        -0.1320 
      2 C2          8.6446    3.3626    0.1685 C.ar      1 <0>        -0.0325 
      3 C3          7.6563    3.3351    1.1554 C.ar      1 <0>        -0.1358 
      4 C4          6.7306    4.3708    1.2660 C.ar      1 <0>        -0.0922 
      5 C5          6.7845    5.4739    0.4035 C.ar      1 <0>        -0.1804 
      6 C6          7.7653    5.4914   -0.5959 C.ar      1 <0>        -0.0738 
      7 C7          8.6837    4.4475   -0.7296 C.ar      1 <0>         0.0913 
      8 C8          9.6525    4.5310   -1.8148 C.1       1 <0>        -0.1789 
      9 C9         10.4810    4.5636   -2.7100 C.1       1 <0>        -0.0823 
     10 C10        11.5173    4.5526   -3.7267 C.ar      1 <0>        -0.3686 
     11 C11        12.4314    3.5485   -4.0395 C.ar      1 <0>         0.1356 
     12 N1         13.2442    3.8469   -5.0304 N.2       1 <0>        -0.4788 
     13 C12        12.8799    5.1023   -5.3894 C.ar      1 <0>         0.3814 
     14 N2         11.8190    5.5780   -4.5919 N.pl3     1 <0>         0.4010 
     15 C13        11.2902    6.8351   -4.7585 C.ar      1 <0>        -0.2547 
     16 C14        11.8047    7.6620   -5.7532 C.ar      1 <0>        -0.2111 
     17 C15        12.8376    7.2063   -6.5698 C.ar      1 <0>        -0.0878 
     18 C16        13.3924    5.9359   -6.3988 C.ar      1 <0>        -0.3543 
     19 C17         5.8072    6.6199    0.5081 C.2       1 <0>         0.5555 
     20 O1          5.5831    7.3258   -0.4786 O.2       1 <0>        -0.4900 
     21 N3          5.2618    6.8207    1.7295 N.am      1 <0>        -0.4064 
     22 C18         4.3179    7.7941    2.1032 C.ar      1 <0>         0.0425 
     23 C19         4.2919    8.1762    3.4462 C.ar      1 <0>        -0.0724 
     24 C20         3.4091    9.1691    3.8838 C.ar      1 <0>        -0.1120 
     25 C21         2.5495    9.7815    2.9697 C.ar      1 <0>        -0.0815 
     26 C22         2.5426    9.3937    1.6277 C.ar      1 <0>        -0.0966 
     27 C23         3.4202    8.3900    1.2049 C.ar      1 <0>        -0.0549 
     28 C24         1.6155   10.0744    0.6218 C.3       1 <0>         0.4668 
     29 F1          2.3140   10.9900   -0.0530 F         1 <0>        -0.1681 
     30 F2          1.1175    9.1885   -0.2462 F         1 <0>        -0.1681 
     31 F3          0.5922   10.6890    1.2209 F         1 <0>        -0.1681 
     32 C25         3.4825    9.7078    5.3053 C.3       1 <0>         0.1503 
     33 N4          4.2888   10.9305    5.3549 N.3       1 <0>        -0.7058 
     34 C26         5.7272   10.6195    5.2685 C.3       1 <0>         0.0462 
     35 C27         6.5783   11.9028    5.2398 C.3       1 <0>         0.0641 
     36 N5          6.2300   12.7737    6.4645 N.4       1 <0>        -0.4468 
     37 C28         4.7139   13.0466    6.5517 C.3       1 <0>         0.0641 
     38 C29         3.9708   11.6953    6.5672 C.3       1 <0>         0.0462 
     39 C30         7.0372   14.0882    6.4702 C.3       1 <0>        -0.0081 
     40 H1         10.5192    2.4343    0.6899 H         1 <0>         0.0803 
     41 H2          9.1922    1.2808    0.5023 H         1 <0>         0.0803 
     42 H3          9.9356    1.9732   -0.9118 H         1 <0>         0.0803 
     43 H4          7.6019    2.5053    1.8444 H         1 <0>         0.1422 
     44 H5          5.9762    4.2996    2.0357 H         1 <0>         0.1341 
     45 H6          7.8136    6.3284   -1.2805 H         1 <0>         0.1471 
     46 H7         12.4981    2.5964   -3.5307 H         1 <0>         0.1635 
     47 H8         10.4856    7.1207   -4.0957 H         1 <0>         0.2211 
     48 H9         11.4034    8.6561   -5.8954 H         1 <0>         0.1865 
     49 H10        13.2230    7.8532   -7.3439 H         1 <0>         0.1626 
     50 H11        14.1993    5.5934   -7.0289 H         1 <0>         0.2219 
     51 H12         5.6195    6.2504    2.4802 H         1 <0>         0.3129 
     52 H13         4.9847    7.7349    4.1495 H         1 <0>         0.1476 
     53 H14         1.9058   10.5823    3.3050 H         1 <0>         0.1403 
     54 H15         3.4037    8.0954    0.1670 H         1 <0>         0.1645 
     55 H16         2.4632    9.8999    5.6473 H         1 <0>         0.0885 
     56 H17         3.9149    8.9756    5.9845 H         1 <0>         0.0885 
     57 H18         5.9919   10.0307    6.1502 H         1 <0>         0.1051 
     58 H19         5.9608   10.0325    4.3804 H         1 <0>         0.1051 
     59 H20         7.6331   11.6470    5.3360 H         1 <0>         0.1318 
     60 H21         6.4091   12.4970    4.3406 H         1 <0>         0.1318 
     61 H22         4.5561   13.5679    7.4983 H         1 <0>         0.1318 
     62 H23         4.4306   13.6793    5.7074 H         1 <0>         0.1318 
     63 H24         2.8969   11.8811    6.6378 H         1 <0>         0.1051 
     64 H25         4.2710   11.1087    7.4398 H         1 <0>         0.1051 
     65 H26         6.7518   14.6729    5.5924 H         1 <0>         0.1261 
     66 H27         6.7882   14.6033    7.3991 H         1 <0>         0.1261 
     67 H28         8.0951   13.8202    6.4524 H         1 <0>         0.1261 
     68 H29         6.4347   12.2650    7.3327 H         1 <0>         0.3089 
@<TRIPOS>BOND
     1    1    2 1    
     2    1   40 1    
     3    1   41 1    
     4    1   42 1    
     5    2    7 ar   
     6    2    3 ar   
     7    3    4 ar   
     8    3   43 1    
     9    4    5 ar   
    10    4   44 1    
    11    5    6 ar   
    12    5   19 1    
    13    6    7 ar   
    14    6   45 1    
    15    7    8 1    
    16    8    9 3    
    17    9   10 1    
    18   10   14 ar   
    19   10   11 ar   
    20   11   12 ar   
    21   11   46 1    
    22   12   13 ar   
    23   13   18 ar   
    24   13   14 ar   
    25   14   15 ar   
    26   15   16 ar   
    27   15   47 1    
    28   16   17 ar   
    29   16   48 1    
    30   17   18 ar   
    31   17   49 1    
    32   18   50 1    
    33   19   20 2    
    34   19   21 am   BACKBONE|DICT|INTERRES
    35   21   22 1    
    36   21   51 1    
    37   22   27 ar   
    38   22   23 ar   
    39   23   24 ar   
    40   23   52 1    
    41   24   25 ar   
    42   24   32 1    
    43   25   26 ar   
    44   25   53 1    
    45   26   27 ar   
    46   26   28 1    
    47   27   54 1    
    48   28   29 1    
    49   28   30 1    
    50   28   31 1    
    51   32   33 1    
    52   32   55 1    
    53   32   56 1    
    54   33   38 1    
    55   33   34 1    
    56   34   35 1    
    57   34   57 1    
    58   34   58 1    
    59   35   36 1    
    60   35   59 1    
    61   35   60 1    
    62   36   37 1    
    63   36   39 1    
    64   36   68 1    
    65   37   38 1    
    66   37   61 1    
    67   37   62 1    
    68   38   63 1    
    69   38   64 1    
    70   39   65 1    
    71   39   66 1    
    72   39   67 1    
@<TRIPOS>SUBSTRUCTURE
     1 <0>         1 GROUP             0       ****    0 ROOT    
@<TRIPOS>MOLECULE
CHEMBL1171282
68   72    1
SMALL
USER_CHARGES


@<TRIPOS>ATOM
      1 C1          7.7836   12.4255   -2.5633 C.3       1 <0>        -0.1332 
      2 C2          7.7151   11.0279   -1.9530 C.ar      1 <0>        -0.0286 
      3 C3          7.6207    9.9281   -2.8063 C.ar      1 <0>        -0.1337 
      4 C4          7.5541    8.6355   -2.2931 C.ar      1 <0>        -0.0933 
      5 C5          7.5927    8.4068   -0.9064 C.ar      1 <0>        -0.1854 
      6 C6          7.6511    9.5155   -0.0540 C.ar      1 <0>        -0.0736 
      7 C7          7.7315   10.8145   -0.5619 C.ar      1 <0>         0.0964 
      8 C8          7.8092   11.9152    0.3879 C.1       1 <0>        -0.1879 
      9 C9          7.7748   12.8193    1.2042 C.1       1 <0>        -0.0725 
     10 C10         7.5795   13.8406    2.2140 C.ar      1 <0>        -0.3740 
     11 C11         7.4968   15.2260    2.0842 C.ar      1 <0>         0.1371 
     12 N1          7.2246   15.8551    3.2055 N.2       1 <0>        -0.4759 
     13 C12         7.1145   14.8639    4.1247 C.ar      1 <0>         0.3822 
     14 N2          7.3616   13.6005    3.5512 N.pl3     1 <0>         0.4018 
     15 C13         7.3385   12.4442    4.2955 C.ar      1 <0>        -0.2562 
     16 C14         7.0421   12.5158    5.6523 C.ar      1 <0>        -0.2098 
     17 C15         6.7678   13.7495    6.2362 C.ar      1 <0>        -0.0867 
     18 C16         6.8018   14.9322    5.4906 C.ar      1 <0>        -0.3537 
     19 C17         7.6313    7.0096   -0.3227 C.2       1 <0>         0.5572 
     20 O1          7.3308    6.8022    0.8558 O.2       1 <0>        -0.4848 
     21 N3          8.0885    6.0707   -1.1772 N.am      1 <0>        -0.4179 
     22 C18         8.4410    4.7327   -0.9561 C.ar      1 <0>         0.0571 
     23 C19         8.7776    4.0044   -2.0989 C.ar      1 <0>        -0.0779 
     24 C20         9.2097    2.6817   -1.9978 C.ar      1 <0>        -0.1701 
     25 C21         9.2432    2.0655   -0.7411 C.ar      1 <0>        -0.0566 
     26 C22         8.9236    2.7825    0.4186 C.ar      1 <0>        -0.0933 
     27 C23         8.5261    4.1193    0.3047 C.ar      1 <0>        -0.0320 
     28 C24         9.0374    2.1464    1.8040 C.3       1 <0>         0.4678 
     29 F1          9.9739    2.7829    2.5110 F         1 <0>        -0.1608 
     30 F2          7.8721    2.2469    2.4484 F         1 <0>        -0.1608 
     31 F3          9.3730    0.8544    1.7429 F         1 <0>        -0.1608 
     32 C25         9.6707    1.9253   -3.2369 C.3       1 <0>         0.0922 
     33 N4         11.1764    2.1438   -3.5344 N.4       1 <0>        -0.4417 
     34 C26        11.4535    3.4691   -4.2802 C.3       1 <0>         0.0636 
     35 C27        12.9734    3.6291   -4.5054 C.3       1 <0>         0.0432 
     36 N5         13.5377    2.4729   -5.2139 N.3       1 <0>        -0.6930 
     37 C28        13.3154    1.2193   -4.4823 C.3       1 <0>         0.0432 
     38 C29        11.8073    0.9503   -4.2847 C.3       1 <0>         0.0636 
     39 C30        14.9687    2.6714   -5.4371 C.3       1 <0>         0.0452 
     40 H1          8.7397   12.8887   -2.3233 H         1 <0>         0.0822 
     41 H2          7.6739   12.4172   -3.6493 H         1 <0>         0.0822 
     42 H3          6.9981   13.0612   -2.1490 H         1 <0>         0.0822 
     43 H4          7.6065   10.0735   -3.8754 H         1 <0>         0.1446 
     44 H5          7.4821    7.8219   -2.9991 H         1 <0>         0.1320 
     45 H6          7.6774    9.3619    1.0179 H         1 <0>         0.1467 
     46 H7          7.6192   15.7719    1.1614 H         1 <0>         0.1638 
     47 H8          7.5452   11.5148    3.7803 H         1 <0>         0.2203 
     48 H9          7.0057   11.6190    6.2564 H         1 <0>         0.1870 
     49 H10         6.5172   13.7837    7.2858 H         1 <0>         0.1637 
     50 H11         6.5866   15.8793    5.9613 H         1 <0>         0.2231 
     51 H12         8.2263    6.3936   -2.1235 H         1 <0>         0.3191 
     52 H13         8.7384    4.4746   -3.0721 H         1 <0>         0.1456 
     53 H14         9.5801    1.0429   -0.6645 H         1 <0>         0.1509 
     54 H15         8.3076    4.6673    1.2086 H         1 <0>         0.1757 
     55 H16         9.5420    0.8509   -3.0869 H         1 <0>         0.1265 
     56 H17         9.1233    2.2114   -4.1361 H         1 <0>         0.1265 
     57 H18        10.8873    3.4581   -5.2141 H         1 <0>         0.1309 
     58 H19        11.0972    4.2647   -3.6247 H         1 <0>         0.1309 
     59 H20        13.1626    4.5533   -5.0561 H         1 <0>         0.1030 
     60 H21        13.4714    3.6921   -3.5356 H         1 <0>         0.1030 
     61 H22        13.7620    0.3779   -5.0163 H         1 <0>         0.1030 
     62 H23        13.7949    1.3075   -3.5041 H         1 <0>         0.1030 
     63 H24        11.6716    0.0792   -3.6408 H         1 <0>         0.1309 
     64 H25        11.2670    0.8228   -5.2258 H         1 <0>         0.1309 
     65 H26        15.5159    2.7549   -4.4971 H         1 <0>         0.0853 
     66 H27        15.3891    1.8361   -6.0000 H         1 <0>         0.0853 
     67 H28        15.1539    3.5756   -6.0186 H         1 <0>         0.0853 
     68 H29        11.6438    2.2236   -2.6231 H         1 <0>         0.3004 
@<TRIPOS>BOND
     1    1    2 1    
     2    1   40 1    
     3    1   41 1    
     4    1   42 1    
     5    2    7 ar   
     6    2    3 ar   
     7    3    4 ar   
     8    3   43 1    
     9    4    5 ar   
    10    4   44 1    
    11    5    6 ar   
    12    5   19 1    
    13    6    7 ar   
    14    6   45 1    
    15    7    8 1    
    16    8    9 3    
    17    9   10 1    
    18   10   14 ar   
    19   10   11 ar   
    20   11   12 ar   
    21   11   46 1    
    22   12   13 ar   
    23   13   18 ar   
    24   13   14 ar   
    25   14   15 ar   
    26   15   16 ar   
    27   15   47 1    
    28   16   17 ar   
    29   16   48 1    
    30   17   18 ar   
    31   17   49 1    
    32   18   50 1    
    33   19   20 2    
    34   19   21 am   BACKBONE|DICT|INTERRES
    35   21   22 1    
    36   21   51 1    
    37   22   27 ar   
    38   22   23 ar   
    39   23   24 ar   
    40   23   52 1    
    41   24   25 ar   
    42   24   32 1    
    43   25   26 ar   
    44   25   53 1    
    45   26   27 ar   
    46   26   28 1    
    47   27   54 1    
    48   28   29 1    
    49   28   30 1    
    50   28   31 1    
    51   32   33 1    
    52   32   55 1    
    53   32   56 1    
    54   33   38 1    
    55   33   34 1    
    56   33   68 1    
    57   34   35 1    
    58   34   57 1    
    59   34   58 1    
    60   35   36 1    
    61   35   59 1    
    62   35   60 1    
    63   36   37 1    
    64   36   39 1    
    65   37   38 1    
    66   37   61 1    
    67   37   62 1    
    68   38   63 1    
    69   38   64 1    
    70   39   65 1    
    71   39   66 1    
    72   39   67 1    
@<TRIPOS>SUBSTRUCTURE
     1 <0>         1 GROUP             0       ****    0 ROOT    
@<TRIPOS>MOLECULE
CHEMBL522892
51   55    1
SMALL
USER_CHARGES


@<TRIPOS>ATOM
      1 C1          4.8288    8.4550    0.1417 C.3       1 <0>        -0.0103 
      2 N1          5.9845    9.1294    0.9121 N.4       1 <0>        -0.4413 
      3 C2          5.5919   10.5468    1.3513 C.3       1 <0>         0.0575 
      4 C3          6.7473   11.1511    2.1752 C.3       1 <0>        -0.0793 
      5 N2          8.0973   11.1354    1.5544 N.pl3     1 <0>        -0.4379 
      6 C4          8.3704    9.8568    0.8579 C.3       1 <0>        -0.0793 
      7 C5          7.2310    9.2443    0.0250 C.3       1 <0>         0.0575 
      8 C6          9.1599   11.8575    2.1334 C.ar      1 <0>         0.1845 
      9 C7          8.8973   12.9584    2.9750 C.ar      1 <0>        -0.1698 
     10 C8          9.9010   13.7057    3.5874 C.ar      1 <0>        -0.2385 
     11 C9         11.2247   13.3581    3.3253 C.ar      1 <0>         0.2487 
     12 C10        11.5118   12.2879    2.4632 C.ar      1 <0>         0.1539 
     13 C11        10.5089   11.5316    1.8509 C.ar      1 <0>        -0.3236 
     14 N3         12.8889   12.2540    2.4537 N.pl3     1 <0>        -0.3000 
     15 H1         13.5049   11.6075    1.9715 H         1 <0>         0.3134 
     16 C12        13.3716   13.2725    3.2552 C.ar      1 <0>         0.2248 
     17 N4         12.3679   13.9164    3.8130 N.2       1 <0>        -0.3372 
     18 C13        14.8128   13.6345    3.4523 C.ar      1 <0>        -0.4323 
     19 C14        15.2130   14.6926    4.2220 C.ar      1 <0>         0.1827 
     20 C15        16.6466   15.0601    4.4200 C.ar      1 <0>        -0.0185 
     21 C16        17.5626   14.2898    3.6995 C.ar      1 <0>         0.4384 
     22 C17        18.9220   14.5581    3.7818 C.ar      1 <0>        -0.4100 
     23 C18        19.4032   15.5913    4.5776 C.ar      1 <0>        -0.0186 
     24 C19        18.5081   16.3472    5.3233 C.ar      1 <0>        -0.2587 
     25 C20        17.1444   16.0730    5.2687 C.ar      1 <0>         0.1514 
     26 F1         16.3344   16.7995    6.0639 F         1 <0>        -0.1750 
     27 N5         17.1085   13.2207    2.9280 N.pl3     1 <0>        -0.6203 
     28 H2         17.7729   12.6503    2.4304 H         1 <0>         0.3777 
     29 C21        15.8303   12.8285    2.7650 C.ar      1 <0>         0.8311 
     30 O1         15.6315   11.8538    2.0548 O.2       1 <0>        -0.6496 
     31 N6         14.3494   15.5234    4.8644 N.pl3     1 <0>        -0.5301 
     32 H3          5.1644    7.4546   -0.1381 H         1 <0>         0.1245 
     33 H4          3.9755    8.3949    0.8197 H         1 <0>         0.1245 
     34 H5          4.5973    9.0585   -0.7389 H         1 <0>         0.1245 
     35 H6          5.3498   11.1328    0.4619 H         1 <0>         0.1290 
     36 H7          4.7069   10.4310    1.9795 H         1 <0>         0.1290 
     37 H8          6.4249   12.1506    2.4547 H         1 <0>         0.1027 
     38 H9          6.8377   10.5371    3.0741 H         1 <0>         0.1027 
     39 H10         9.2304    9.9377    0.1950 H         1 <0>         0.1027 
     40 H11         8.5788    9.1478    1.6626 H         1 <0>         0.1027 
     41 H12         7.4942    8.2247   -0.2649 H         1 <0>         0.1290 
     42 H13         6.9836    9.8366   -0.8592 H         1 <0>         0.1290 
     43 H14         7.8906   13.2641    3.2001 H         1 <0>         0.1585 
     44 H15         9.6639   14.5224    4.2516 H         1 <0>         0.2065 
     45 H16        10.7950   10.7080    1.2183 H         1 <0>         0.1892 
     46 H17        19.6273   13.9414    3.2644 H         1 <0>         0.2182 
     47 H18        20.4655   15.7846    4.6343 H         1 <0>         0.1692 
     48 H19        18.8672   17.1421    5.9589 H         1 <0>         0.1857 
     49 H20        13.3559   15.3421    4.8184 H         1 <0>         0.2871 
     50 H21        14.6815   16.2451    5.4912 H         1 <0>         0.2871 
     51 H22         6.2069    8.5771    1.7318 H         1 <0>         0.3064 
@<TRIPOS>BOND
     1    1    2 1    
     2    1   32 1    
     3    1   33 1    
     4    1   34 1    
     5    2    7 1    
     6    2    3 1    
     7    2   51 1    
     8    3    4 1    
     9    3   35 1    
    10    3   36 1    
    11    4    5 1    
    12    4   37 1    
    13    4   38 1    
    14    5    6 1    
    15    5    8 1    
    16    6    7 1    
    17    6   39 1    
    18    6   40 1    
    19    7   41 1    
    20    7   42 1    
    21    8   13 ar   
    22    8    9 ar   
    23    9   10 ar   
    24    9   43 1    
    25   10   11 ar   
    26   10   44 1    
    27   11   17 ar   
    28   11   12 ar   
    29   12   13 ar   
    30   12   14 ar   
    31   13   45 1    
    32   14   15 1    
    33   14   16 ar   
    34   16   17 ar   
    35   16   18 1    
    36   18   29 ar   
    37   18   19 ar   
    38   19   20 ar   
    39   19   31 1    
    40   20   25 ar   
    41   20   21 ar   
    42   21   22 ar   
    43   21   27 ar   
    44   22   23 ar   
    45   22   46 1    
    46   23   24 ar   
    47   23   47 1    
    48   24   25 ar   
    49   24   48 1    
    50   25   26 1    
    51   27   28 1    
    52   27   29 ar   
    53   29   30 2    
    54   31   49 1    
    55   31   50 1    
@<TRIPOS>SUBSTRUCTURE
     1 <0>         1 GROUP             0       ****    0 ROOT    
@<TRIPOS>MOLECULE
CHEMBL522892
50   54    1
SMALL
USER_CHARGES


@<TRIPOS>ATOM
      1 C1         21.4163   18.6515    5.2188 C.3       1 <0>         0.0532 
      2 N1         20.4755   17.5372    5.3165 N.3       1 <0>        -0.6934 
      3 C2         20.6183   16.6606    4.1555 C.3       1 <0>         0.0919 
      4 C3         19.6220   15.4766    4.1907 C.3       1 <0>        -0.0204 
      5 N2         18.2046   15.8297    4.4266 N.pl3     1 <0>        -0.4712 
      6 C4         18.1296   16.8152    5.5301 C.3       1 <0>        -0.0204 
      7 C5         19.1000   18.0108    5.3780 C.3       1 <0>         0.0919 
      8 C6         17.1432   14.9717    4.0894 C.ar      1 <0>         0.2509 
      9 C7         17.3502   13.8453    3.2655 C.ar      1 <0>        -0.1698 
     10 C8         16.3157   13.0007    2.8611 C.ar      1 <0>        -0.2574 
     11 C9         15.0111   13.3219    3.2394 C.ar      1 <0>         0.2343 
     12 C10        14.7943   14.4454    4.0534 C.ar      1 <0>         0.1568 
     13 C11        15.8273   15.2650    4.5096 C.ar      1 <0>        -0.3387 
     14 N3         13.4305   14.4630    4.2055 N.pl3     1 <0>        -0.2732 
     15 H1         12.8479   15.1212    4.7074 H         1 <0>         0.3080 
     16 C12        12.8792   13.4253    3.4790 C.ar      1 <0>         0.2044 
     17 N4         13.8316   12.7006    2.9269 N.2       1 <0>        -0.3995 
     18 C13        11.4085   13.1931    3.3080 C.ar      1 <0>        -0.4044 
     19 C14        10.8750   12.2934    2.4273 C.ar      1 <0>         0.1693 
     20 C15         9.3974   12.0699    2.3088 C.ar      1 <0>        -0.0095 
     21 C16         8.6068   12.7494    3.2495 C.ar      1 <0>         0.4388 
     22 C17         7.2198   12.6234    3.2556 C.ar      1 <0>        -0.4132 
     23 C18         6.5946   11.8099    2.3155 C.ar      1 <0>        -0.0276 
     24 C19         7.3592   11.1512    1.3523 C.ar      1 <0>        -0.2651 
     25 C20         8.7484   11.2850    1.3367 C.ar      1 <0>         0.1500 
     26 F1          9.4348   10.6534    0.3573 F         1 <0>        -0.1763 
     27 N5          9.2139   13.6294    4.1406 N.pl3     1 <0>        -0.6270 
     28 H2          8.6361   14.1826    4.7508 H         1 <0>         0.3737 
     29 C21        10.5063   13.9987    4.1423 C.ar      1 <0>         0.8274 
     30 O1         10.8070   14.9998    4.7795 O.2       1 <0>        -0.6431 
     31 N6         11.6287   11.4533    1.6611 N.pl3     1 <0>        -0.5517 
     32 H3         21.3066   19.3333    6.0620 H         1 <0>         0.0596 
     33 H4         22.4427   18.2872    5.2306 H         1 <0>         0.0596 
     34 H5         21.2792   19.2222    4.3027 H         1 <0>         0.0596 
     35 H6         20.4366   17.2288    3.2401 H         1 <0>         0.0678 
     36 H7         21.6316   16.2660    4.1164 H         1 <0>         0.0678 
     37 H8         19.7614   14.9325    3.2645 H         1 <0>         0.0668 
     38 H9         19.9225   14.8219    5.0091 H         1 <0>         0.0668 
     39 H10        17.1362   17.2269    5.6653 H         1 <0>         0.0668 
     40 H11        18.3704   16.2986    6.4606 H         1 <0>         0.0668 
     41 H12        18.9850   18.6555    6.2514 H         1 <0>         0.0678 
     42 H13        18.8415   18.5918    4.4908 H         1 <0>         0.0678 
     43 H14        18.3345   13.5799    2.9193 H         1 <0>         0.1625 
     44 H15        16.5168   12.1523    2.2286 H         1 <0>         0.1893 
     45 H16        15.5842   16.1105    5.1296 H         1 <0>         0.1961 
     46 H17         6.6197   13.1482    3.9839 H         1 <0>         0.2133 
     47 H18         5.5205   11.7019    2.3183 H         1 <0>         0.1621 
     48 H19         6.8748   10.5312    0.6115 H         1 <0>         0.1796 
     49 H20        12.6300   11.3845    1.8040 H         1 <0>         0.2955 
     50 H21        11.1933   10.7620    1.0639 H         1 <0>         0.2955 
@<TRIPOS>BOND
     1    1    2 1    
     2    1   32 1    
     3    1   33 1    
     4    1   34 1    
     5    2    7 1    
     6    2    3 1    
     7    3    4 1    
     8    3   35 1    
     9    3   36 1    
    10    4    5 1    
    11    4   37 1    
    12    4   38 1    
    13    5    6 1    
    14    5    8 1    
    15    6    7 1    
    16    6   39 1    
    17    6   40 1    
    18    7   41 1    
    19    7   42 1    
    20    8   13 ar   
    21    8    9 ar   
    22    9   10 ar   
    23    9   43 1    
    24   10   11 ar   
    25   10   44 1    
    26   11   17 ar   
    27   11   12 ar   
    28   12   13 ar   
    29   12   14 ar   
    30   13   45 1    
    31   14   15 1    
    32   14   16 ar   
    33   16   17 ar   
    34   16   18 1    
    35   18   29 ar   
    36   18   19 ar   
    37   19   20 ar   
    38   19   31 1    
    39   20   25 ar   
    40   20   21 ar   
    41   21   22 ar   
    42   21   27 ar   
    43   22   23 ar   
    44   22   46 1    
    45   23   24 ar   
    46   23   47 1    
    47   24   25 ar   
    48   24   48 1    
    49   25   26 1    
    50   27   28 1    
    51   27   29 ar   
    52   29   30 2    
    53   31   49 1    
    54   31   50 1    
@<TRIPOS>SUBSTRUCTURE
     1 <0>         1 GROUP             0       ****    0 ROOT    
@<TRIPOS>MOLECULE
CHEMBL564829
67   71    1
SMALL
USER_CHARGES


@<TRIPOS>ATOM
      1 C1          4.7985   14.6531    1.9736 C.3       1 <0>        -0.1674 
      2 C2          6.3222   14.4833    1.7613 C.3       1 <0>        -0.0288 
      3 C3          6.9367   14.2820    3.1999 C.3       1 <0>        -0.0703 
      4 C4          8.3956   13.8224    3.1867 C.ar      1 <0>        -0.1992 
      5 C5          9.3727   14.2546    4.0810 C.ar      1 <0>         0.0717 
      6 N1         10.6649   13.8498    4.0179 N.ar      1 <0>        -0.3129 
      7 C6         10.9878   12.9708    3.0311 C.ar      1 <0>         0.3598 
      8 N2         10.1028   12.4360    2.1579 N.ar      1 <0>        -0.3460 
      9 C7          8.8223   12.8873    2.2404 C.ar      1 <0>         0.1943 
     10 C8          7.8019   12.4670    1.2573 C.ar      1 <0>        -0.1111 
     11 C9          6.6510   13.1951    0.9605 C.ar      1 <0>        -0.0751 
     12 C10         6.0732   12.4947   -0.1346 C.ar      1 <0>        -0.0314 
     13 N3          6.7199   11.3630   -0.3614 N.2       1 <0>        -0.1302 
     14 N4          7.7461   11.3446    0.4845 N.pl3     1 <0>         0.1648 
     15 C11         8.6508   10.2109    0.5127 C.3       1 <0>        -0.1124 
     16 C12         4.9829   12.9606   -0.9593 C.2       1 <0>         0.4969 
     17 O1          4.7611   14.1606   -1.1218 O.2       1 <0>        -0.5067 
     18 N5          4.2481   11.9849   -1.5248 N.am      1 <0>        -0.5752 
     19 C13         3.0949   12.2014   -2.3907 C.3       1 <0>         0.0634 
     20 N6         12.3195   12.5694    2.8509 N.pl3     1 <0>        -0.6146 
     21 C14        13.5386   13.1760    3.1954 C.ar      1 <0>         0.2638 
     22 C15        13.6112   14.4458    3.7744 C.ar      1 <0>        -0.1578 
     23 C16        14.8393   15.0419    4.0072 C.ar      1 <0>        -0.0919 
     24 C17        16.0320   14.3865    3.6891 C.ar      1 <0>         0.1542 
     25 C18        15.9610   13.1083    3.1187 C.ar      1 <0>        -0.0919 
     26 C19        14.7233   12.5114    2.8716 C.ar      1 <0>        -0.1578 
     27 N7         17.2399   14.9929    4.0279 N.pl3     1 <0>        -0.4416 
     28 C20        18.5305   14.5558    3.4684 C.3       1 <0>        -0.0790 
     29 C21        19.6537   15.6142    3.5197 C.3       1 <0>         0.0576 
     30 N8         19.8113   16.1253    4.9639 N.4       1 <0>        -0.4414 
     31 C22        18.4548   16.6863    5.4296 C.3       1 <0>         0.0576 
     32 C23        17.4140   15.5601    5.3816 C.3       1 <0>        -0.0790 
     33 C24        20.9159   17.2038    5.0382 C.3       1 <0>        -0.0101 
     34 C25         6.9787   15.7036    1.0844 C.3       1 <0>        -0.1674 
     35 H1          4.3142   13.7055    2.2111 H         1 <0>         0.0705 
     36 H2          4.5781   15.3390    2.7911 H         1 <0>         0.0705 
     37 H3          4.2984   15.0585    1.0951 H         1 <0>         0.0705 
     38 H4          6.8323   15.1916    3.7924 H         1 <0>         0.0891 
     39 H5          6.3688   13.5161    3.7335 H         1 <0>         0.0891 
     40 H6          9.1247   14.9461    4.8672 H         1 <0>         0.1728 
     41 H7          8.7542    9.8647    1.5433 H         1 <0>         0.0909 
     42 H8          8.2768    9.3974   -0.1019 H         1 <0>         0.0909 
     43 H9          9.6224   10.5284    0.1495 H         1 <0>         0.0909 
     44 H10         4.5302   11.0297   -1.3681 H         1 <0>         0.3073 
     45 H11         2.2134   11.7191   -1.9656 H         1 <0>         0.0738 
     46 H12         2.8640   13.2561   -2.5356 H         1 <0>         0.0738 
     47 H13         3.2801   11.7605   -3.3725 H         1 <0>         0.0738 
     48 H14        12.4096   11.7868    2.2186 H         1 <0>         0.3353 
     49 H15        12.7409   15.0140    4.0472 H         1 <0>         0.1594 
     50 H16        14.8467   16.0234    4.4504 H         1 <0>         0.1353 
     51 H17        16.8611   12.5581    2.8882 H         1 <0>         0.1353 
     52 H18        14.6871   11.5315    2.4211 H         1 <0>         0.1594 
     53 H19        18.8299   13.7306    4.1110 H         1 <0>         0.1037 
     54 H20        18.4199   14.1549    2.4648 H         1 <0>         0.1037 
     55 H21        20.6119   15.1639    3.2689 H         1 <0>         0.1295 
     56 H22        19.4614   16.4636    2.8618 H         1 <0>         0.1295 
     57 H23        18.5745   17.0503    6.4495 H         1 <0>         0.1295 
     58 H24        18.1802   17.5049    4.7651 H         1 <0>         0.1295 
     59 H25        16.4757   15.9101    5.8126 H         1 <0>         0.1037 
     60 H26        17.7531   14.7431    6.0205 H         1 <0>         0.1037 
     61 H27        20.6334   18.0390    4.3953 H         1 <0>         0.1250 
     62 H28        21.0056   17.5184    6.0783 H         1 <0>         0.1250 
     63 H29        21.8443   16.7400    4.7022 H         1 <0>         0.1250 
     64 H30         6.8805   16.6013    1.6939 H         1 <0>         0.0705 
     65 H31         8.0395   15.5434    0.8957 H         1 <0>         0.0705 
     66 H32         6.5117   15.9100    0.1189 H         1 <0>         0.0705 
     67 H33        20.0634   15.3495    5.5614 H         1 <0>         0.3075 
@<TRIPOS>BOND
     1    1    2 1    
     2    1   35 1    
     3    1   36 1    
     4    1   37 1    
     5    2   11 1    
     6    2    3 1    
     7    2   34 1    
     8    3    4 1    
     9    3   38 1    
    10    3   39 1    
    11    4    9 ar   
    12    4    5 ar   
    13    5    6 ar   
    14    5   40 1    
    15    6    7 ar   
    16    7    8 ar   
    17    7   20 1    
    18    8    9 ar   
    19    9   10 1    
    20   10   14 ar   
    21   10   11 ar   
    22   11   12 ar   
    23   12   13 ar   
    24   12   16 1    
    25   13   14 ar   
    26   14   15 1    
    27   15   41 1    
    28   15   42 1    
    29   15   43 1    
    30   16   17 2    
    31   16   18 am   BACKBONE|DICT|INTERRES
    32   18   19 1    
    33   18   44 1    
    34   19   45 1    
    35   19   46 1    
    36   19   47 1    
    37   20   21 1    
    38   20   48 1    
    39   21   26 ar   
    40   21   22 ar   
    41   22   23 ar   
    42   22   49 1    
    43   23   24 ar   
    44   23   50 1    
    45   24   25 ar   
    46   24   27 1    
    47   25   26 ar   
    48   25   51 1    
    49   26   52 1    
    50   27   32 1    
    51   27   28 1    
    52   28   29 1    
    53   28   53 1    
    54   28   54 1    
    55   29   30 1    
    56   29   55 1    
    57   29   56 1    
    58   30   31 1    
    59   30   33 1    
    60   30   67 1    
    61   31   32 1    
    62   31   57 1    
    63   31   58 1    
    64   32   59 1    
    65   32   60 1    
    66   33   61 1    
    67   33   62 1    
    68   33   63 1    
    69   34   64 1    
    70   34   65 1    
    71   34   66 1    
@<TRIPOS>SUBSTRUCTURE
     1 <0>         1 GROUP             0       ****    0 ROOT    
@<TRIPOS>MOLECULE
CHEMBL564829
66   70    1
SMALL
USER_CHARGES


@<TRIPOS>ATOM
      1 C1          4.1217   13.8299    2.6105 C.3       1 <0>        -0.1658 
      2 C2          5.6196   13.8205    2.2166 C.3       1 <0>        -0.0285 
      3 C3          6.4077   13.8439    3.5763 C.3       1 <0>        -0.0678 
      4 C4          7.9048   13.5855    3.4209 C.ar      1 <0>        -0.2100 
      5 C5          8.8935   14.2520    4.1437 C.ar      1 <0>         0.0685 
      6 N1         10.2171   13.9977    3.9930 N.ar      1 <0>        -0.3054 
      7 C6         10.5592   13.0343    3.0973 C.ar      1 <0>         0.3714 
      8 N2          9.6736   12.3138    2.3647 N.ar      1 <0>        -0.3402 
      9 C7          8.3557   12.6093    2.5243 C.ar      1 <0>         0.1876 
     10 C8          7.3020   11.9608    1.6936 C.ar      1 <0>        -0.1009 
     11 C9          6.0255   12.5046    1.4970 C.ar      1 <0>        -0.0853 
     12 C10         5.3979   11.6268    0.5674 C.ar      1 <0>        -0.0323 
     13 N3          6.1673   10.5819    0.3248 N.2       1 <0>        -0.1465 
     14 N4          7.3087   10.7875    0.9823 N.pl3     1 <0>         0.1770 
     15 C11         8.3146    9.7417    0.9305 C.3       1 <0>        -0.1163 
     16 C12         4.1374   11.8447   -0.1134 C.2       1 <0>         0.5001 
     17 O1          3.7264   12.9759   -0.3747 O.2       1 <0>        -0.5111 
     18 N5          3.4798   10.7190   -0.4473 N.am      1 <0>        -0.5784 
     19 C13         2.2070   10.6673   -1.1560 C.3       1 <0>         0.0657 
     20 N6         11.9058   12.7163    2.8677 N.pl3     1 <0>        -0.6088 
     21 C14        13.1283   13.3027    3.2431 C.ar      1 <0>         0.2189 
     22 C15        13.2331   14.4498    4.0342 C.ar      1 <0>        -0.1649 
     23 C16        14.4744   15.0243    4.2766 C.ar      1 <0>        -0.1032 
     24 C17        15.6505   14.4491    3.7782 C.ar      1 <0>         0.2200 
     25 C18        15.5374   13.2941    2.9892 C.ar      1 <0>        -0.1032 
     26 C19        14.2912   12.7276    2.7299 C.ar      1 <0>        -0.1649 
     27 N7         16.8881   15.0232    4.0827 N.pl3     1 <0>        -0.4720 
     28 C20        18.1590   14.5379    3.5046 C.3       1 <0>        -0.0206 
     29 C21        19.3415   15.5316    3.6299 C.3       1 <0>         0.0920 
     30 N8         19.5383   15.9470    5.0181 N.3       1 <0>        -0.6925 
     31 C22        18.3046   16.5579    5.5013 C.3       1 <0>         0.0920 
     32 C23        17.1519   15.5341    5.4426 C.3       1 <0>        -0.0206 
     33 C24        20.6585   16.8783    5.1093 C.3       1 <0>         0.0528 
     34 C25         6.0296   15.0345    1.3537 C.3       1 <0>        -0.1658 
     35 H1          3.7968   12.8580    2.9857 H         1 <0>         0.0678 
     36 H2          3.9146   14.5594    3.3947 H         1 <0>         0.0678 
     37 H3          3.4732   14.0955    1.7781 H         1 <0>         0.0678 
     38 H4          6.2402   14.7856    4.1016 H         1 <0>         0.0860 
     39 H5          6.0195   13.0650    4.2369 H         1 <0>         0.0860 
     40 H6          8.6237   15.0045    4.8662 H         1 <0>         0.1672 
     41 H7          8.0372    8.9531    1.6302 H         1 <0>         0.0939 
     42 H8          8.3794    9.3290   -0.0755 H         1 <0>         0.0939 
     43 H9          9.2933   10.1210    1.2042 H         1 <0>         0.0939 
     44 H10         3.9015    9.8376   -0.1969 H         1 <0>         0.3086 
     45 H11         1.4935   10.0697   -0.5909 H         1 <0>         0.0708 
     46 H12         1.7669   11.6533   -1.3143 H         1 <0>         0.0708 
     47 H13         2.3455   10.1994   -2.1296 H         1 <0>         0.0708 
     48 H14        12.0080   11.9338    2.2380 H         1 <0>         0.3268 
     49 H15        12.3749   14.9443    4.4532 H         1 <0>         0.1424 
     50 H16        14.5001   15.9315    4.8598 H         1 <0>         0.1389 
     51 H17        16.4105   12.8130    2.5769 H         1 <0>         0.1389 
     52 H18        14.2329   11.8508    2.1035 H         1 <0>         0.1424 
     53 H19        18.4348   13.6337    4.0501 H         1 <0>         0.0670 
     54 H20        18.0407   14.2513    2.4648 H         1 <0>         0.0670 
     55 H21        20.2497   15.0513    3.2702 H         1 <0>         0.0682 
     56 H22        19.1423   16.3958    2.9940 H         1 <0>         0.0682 
     57 H23        18.4292   16.8478    6.5423 H         1 <0>         0.0682 
     58 H24        18.0421   17.4478    4.9274 H         1 <0>         0.0682 
     59 H25        16.2740   15.9841    5.9022 H         1 <0>         0.0670 
     60 H26        17.4194   14.6702    6.0596 H         1 <0>         0.0670 
     61 H27        20.4923   17.7750    4.5115 H         1 <0>         0.0602 
     62 H28        20.8258   17.1860    6.1414 H         1 <0>         0.0602 
     63 H29        21.5780   16.4066    4.7617 H         1 <0>         0.0602 
     64 H30         5.8620   15.9749    1.8799 H         1 <0>         0.0678 
     65 H31         7.0824   14.9957    1.0700 H         1 <0>         0.0678 
     66 H32         5.4542   15.0666    0.4273 H         1 <0>         0.0678 
@<TRIPOS>BOND
     1    1    2 1    
     2    1   35 1    
     3    1   36 1    
     4    1   37 1    
     5    2   11 1    
     6    2    3 1    
     7    2   34 1    
     8    3    4 1    
     9    3   38 1    
    10    3   39 1    
    11    4    9 ar   
    12    4    5 ar   
    13    5    6 ar   
    14    5   40 1    
    15    6    7 ar   
    16    7    8 ar   
    17    7   20 1    
    18    8    9 ar   
    19    9   10 1    
    20   10   14 ar   
    21   10   11 ar   
    22   11   12 ar   
    23   12   13 ar   
    24   12   16 1    
    25   13   14 ar   
    26   14   15 1    
    27   15   41 1    
    28   15   42 1    
    29   15   43 1    
    30   16   17 2    
    31   16   18 am   BACKBONE|DICT|INTERRES
    32   18   19 1    
    33   18   44 1    
    34   19   45 1    
    35   19   46 1    
    36   19   47 1    
    37   20   21 1    
    38   20   48 1    
    39   21   26 ar   
    40   21   22 ar   
    41   22   23 ar   
    42   22   49 1    
    43   23   24 ar   
    44   23   50 1    
    45   24   25 ar   
    46   24   27 1    
    47   25   26 ar   
    48   25   51 1    
    49   26   52 1    
    50   27   32 1    
    51   27   28 1    
    52   28   29 1    
    53   28   53 1    
    54   28   54 1    
    55   29   30 1    
    56   29   55 1    
    57   29   56 1    
    58   30   31 1    
    59   30   33 1    
    60   31   32 1    
    61   31   57 1    
    62   31   58 1    
    63   32   59 1    
    64   32   60 1    
    65   33   61 1    
    66   33   62 1    
    67   33   63 1    
    68   34   64 1    
    69   34   65 1    
    70   34   66 1    
@<TRIPOS>SUBSTRUCTURE
     1 <0>         1 GROUP             0       ****    0 ROOT    
@<TRIPOS>MOLECULE
CHEMBL1421
60   63    1
SMALL
USER_CHARGES


@<TRIPOS>ATOM
      1 C1         15.6655   16.5048    5.6395 C.3       1 <0>        -0.1259 
      2 C2         16.7512   15.7938    4.8504 C.ar      1 <0>        -0.0538 
      3 C3         18.0473   16.3161    4.8979 C.ar      1 <0>        -0.1184 
      4 C4         19.0794   15.6998    4.2039 C.ar      1 <0>        -0.0999 
      5 C5         18.8281   14.5177    3.5210 C.ar      1 <0>        -0.1168 
      6 C6         17.5566   13.9549    3.4929 C.ar      1 <0>         0.0870 
      7 C7         16.4680   14.6536    4.0641 C.ar      1 <0>         0.0075 
      8 N1         15.1218   14.2077    4.0647 N.am      1 <0>        -0.3482 
      9 C8         14.4178   13.5584    3.1164 C.2       1 <0>         0.4623 
     10 O1         14.8740   13.1334    2.0593 O.2       1 <0>        -0.4659 
     11 C9         12.9997   13.4570    3.3593 C.2       1 <0>        -0.1598 
     12 C10        12.0309   13.0050    2.4657 C.2       1 <0>        -0.0434 
     13 N2         10.7820   13.0712    2.8647 N.2       1 <0>        -0.2145 
     14 C11        10.6729   13.4536    4.1125 C.2       1 <0>        -0.0514 
     15 S1         12.1935   13.8537    4.8635 S.3       1 <0>         0.2078 
     16 N3          9.4723   13.4957    4.7733 N.pl3     1 <0>        -0.1440 
     17 C12         8.2251   12.8860    4.3946 C.2       1 <0>         0.2878 
     18 C13         8.0813   11.9479    3.3590 C.2       1 <0>        -0.3809 
     19 C14         6.8024   11.5191    2.9725 C.2       1 <0>         0.5951 
     20 N4          5.6998   11.9408    3.6582 N.2       1 <0>        -0.3540 
     21 C15         5.8931   12.7616    4.7235 C.3       1 <0>         0.2129 
     22 N5          7.1080   13.2316    5.0685 N.pl3     1 <0>        -0.1720 
     23 C16         4.6899   13.1466    5.5621 C.3       1 <0>        -0.1458 
     24 N6          6.6152   10.6411    1.9017 N.pl3     1 <0>        -0.4787 
     25 C17         5.4121   10.6882    1.0483 C.3       1 <0>        -0.0240 
     26 C18         5.6467   11.5545   -0.2246 C.3       1 <0>         0.0976 
     27 N7          6.8387   11.1381   -0.9833 N.3       1 <0>        -0.7005 
     28 C19         8.0158   11.0425   -0.1116 C.3       1 <0>         0.0976 
     29 C20         7.7123   10.1091    1.0760 C.3       1 <0>        -0.0240 
     30 C21         7.0443   12.0465   -2.1256 C.3       1 <0>         0.0813 
     31 C22         8.3308   11.8450   -2.9626 C.3       1 <0>         0.1351 
     32 O2          8.3346   10.6234   -3.6736 O.3       1 <0>        -0.6570 
     33 Cl1        17.4676   12.3466    2.8637 Cl        1 <0>        -0.1511 
     34 H1         15.2958   15.8641    6.4421 H         1 <0>         0.0746 
     35 H2         16.0325   17.4344    6.0661 H         1 <0>         0.0746 
     36 H3         14.8286   16.7533    4.9891 H         1 <0>         0.0746 
     37 H4         18.2605   17.2084    5.4686 H         1 <0>         0.1463 
     38 H5         20.0793   16.1097    4.2290 H         1 <0>         0.1493 
     39 H6         19.6310   14.0013    3.0219 H         1 <0>         0.1553 
     40 H7         14.5857   14.5423    4.8496 H         1 <0>         0.2961 
     41 H8         12.2330   12.6545    1.4622 H         1 <0>         0.2127 
     42 H9          9.4430   14.0670    5.6050 H         1 <0>         0.2752 
     43 H10         8.9389   11.5690    2.8370 H         1 <0>         0.2270 
     44 H11         4.8493   12.8765    6.6084 H         1 <0>         0.1259 
     45 H12         4.5070   14.2195    5.5051 H         1 <0>         0.1259 
     46 H13         3.7876   12.6325    5.2260 H         1 <0>         0.1259 
     47 H14         5.1584    9.6690    0.7513 H         1 <0>         0.0820 
     48 H15         4.5470   11.0637    1.5948 H         1 <0>         0.0820 
     49 H16         4.7619   11.4946   -0.8603 H         1 <0>         0.0819 
     50 H17         5.7738   12.5839    0.1147 H         1 <0>         0.0819 
     51 H18         8.8376   10.5855   -0.6622 H         1 <0>         0.0819 
     52 H19         8.3266   12.0187    0.2665 H         1 <0>         0.0819 
     53 H20         8.6097    9.9179    1.6621 H         1 <0>         0.0820 
     54 H21         7.4303    9.1233    0.6994 H         1 <0>         0.0820 
     55 H22         6.1764   12.1167   -2.7832 H         1 <0>         0.0817 
     56 H23         7.1277   13.0513   -1.7100 H         1 <0>         0.0817 
     57 H24         8.4237   12.6534   -3.6891 H         1 <0>         0.0534 
     58 H25         9.2239   11.9136   -2.3426 H         1 <0>         0.0534 
     59 H26         9.1751   10.5596   -4.1364 H         1 <0>         0.4321 
     60 H27         7.1755   13.8423    5.8689 H         1 <0>         0.3369 
@<TRIPOS>BOND
     1    1    2 1    
     2    1   34 1    
     3    1   35 1    
     4    1   36 1    
     5    2    7 ar   
     6    2    3 ar   
     7    3    4 ar   
     8    3   37 1    
     9    4    5 ar   
    10    4   38 1    
    11    5    6 ar   
    12    5   39 1    
    13    6    7 ar   
    14    6   33 1    
    15    7    8 1    
    16    8    9 am   BACKBONE|DICT|INTERRES
    17    8   40 1    
    18    9   10 2    
    19    9   11 1    
    20   11   15 1    
    21   11   12 2    
    22   12   13 1    
    23   12   41 1    
    24   13   14 2    
    25   14   15 1    
    26   14   16 1    
    27   16   17 1    
    28   16   42 1    
    29   17   22 1    
    30   17   18 2    
    31   18   19 1    
    32   18   43 1    
    33   19   20 2    
    34   19   24 1    
    35   20   21 1    
    36   21   22 1    
    37   21   23 1    
    38   22   60 1    
    39   23   44 1    
    40   23   45 1    
    41   23   46 1    
    42   24   29 1    
    43   24   25 1    
    44   25   26 1    
    45   25   47 1    
    46   25   48 1    
    47   26   27 1    
    48   26   49 1    
    49   26   50 1    
    50   27   28 1    
    51   27   30 1    
    52   28   29 1    
    53   28   51 1    
    54   28   52 1    
    55   29   53 1    
    56   29   54 1    
    57   30   31 1    
    58   30   55 1    
    59   30   56 1    
    60   31   32 1    
    61   31   57 1    
    62   31   58 1    
    63   32   59 1    
@<TRIPOS>SUBSTRUCTURE
     1 <0>         1 GROUP             0       ****    0 ROOT    
@<TRIPOS>MOLECULE
CHEMBL1421
61   64    1
SMALL
USER_CHARGES


@<TRIPOS>ATOM
      1 C1         18.8317   18.5232    4.7964 C.3       1 <0>        -0.1265 
      2 C2         19.8873   17.5769    5.2462 C.ar      1 <0>        -0.0527 
      3 C3         21.2131   18.0087    5.3786 C.ar      1 <0>        -0.1159 
      4 C4         22.1948   17.1144    5.8011 C.ar      1 <0>        -0.0966 
      5 C5         21.8381   15.8064    6.1145 C.ar      1 <0>        -0.1157 
      6 C6         20.5130   15.3988    5.9787 C.ar      1 <0>         0.0869 
      7 C7         19.5362   16.2536    5.4914 C.ar      1 <0>         0.0030 
      8 N1         18.2213   15.7901    5.2566 N.am      1 <0>        -0.3473 
      9 C8         17.8891   15.0931    4.1477 C.2       1 <0>         0.4564 
     10 O1         18.6886   14.7844    3.2645 O.2       1 <0>        -0.4571 
     11 C9         16.5151   14.6814    4.0438 C.2       1 <0>        -0.1377 
     12 C10        15.9914   13.6990    3.2058 C.2       1 <0>        -0.1072 
     13 N2         14.6913   13.5051    3.2644 N.2       1 <0>        -0.0059 
     14 C11        14.0958   14.3311    4.0950 C.2       1 <0>        -0.0575 
     15 S1         15.1794   15.4537    4.8704 S.3       1 <0>         0.1741 
     16 N3         12.7460   14.3708    4.4140 N.pl3     1 <0>        -0.1723 
     17 C12        11.6785   13.6461    3.8892 C.ar      1 <0>         0.3285 
     18 C13        10.4181   13.7624    4.4139 C.ar      1 <0>        -0.3117 
     19 C14         9.3773   12.9556    3.8899 C.ar      1 <0>         0.0385 
     20 N4          9.7082   12.2175    2.8081 N.pl3     1 <0>        -0.1612 
     21 C15        11.0220   12.0922    2.3358 C.ar      1 <0>         0.3482 
     22 N5         11.9556   12.7846    2.8583 N.2       1 <0>        -0.3552 
     23 C16        11.3034   11.0571    1.2774 C.3       1 <0>        -0.1842 
     24 N6          8.1198   12.8221    4.3862 N.pl3     1 <0>        -0.0352 
     25 C17         7.1239   11.8536    3.8291 C.3       1 <0>        -0.1413 
     26 C18         6.3059   11.1153    4.9049 C.3       1 <0>         0.0474 
     27 N7          5.6100   12.1518    5.8017 N.4       1 <0>        -0.4448 
     28 C19         6.6829   13.0389    6.4645 C.3       1 <0>         0.0474 
     29 C20         7.5289   13.7504    5.3857 C.3       1 <0>        -0.1413 
     30 C21         4.7319   11.4367    6.8641 C.3       1 <0>         0.0126 
     31 C22         3.6806   12.3851    7.4684 C.3       1 <0>         0.1274 
     32 O2          2.9514   13.0541    6.4557 O.3       1 <0>        -0.6190 
     33 Cl1        20.0318   13.8537    6.4679 Cl        1 <0>        -0.1586 
     34 H1         18.4317   19.0988    5.6332 H         1 <0>         0.0754 
     35 H2         19.2792   19.1599    4.0645 H         1 <0>         0.0754 
     36 H3         18.0529   17.9929    4.2444 H         1 <0>         0.0754 
     37 H4         21.4857   19.0317    5.1603 H         1 <0>         0.1493 
     38 H5         23.2217   17.4344    5.9089 H         1 <0>         0.1525 
     39 H6         22.5824   15.1088    6.4644 H         1 <0>         0.1566 
     40 H7         17.5155   16.0089    5.9418 H         1 <0>         0.2923 
     41 H8         16.5808   13.0848    2.5394 H         1 <0>         0.2188 
     42 H9         12.4930   15.0018    5.1581 H         1 <0>         0.2897 
     43 H10        10.2380   14.4373    5.2344 H         1 <0>         0.1835 
     44 H11        10.5838   11.1234    0.4645 H         1 <0>         0.1318 
     45 H12        12.3065   11.1560    0.8645 H         1 <0>         0.1318 
     46 H13        11.2321   10.0579    1.7031 H         1 <0>         0.1318 
     47 H14         6.4918   12.4089    3.1344 H         1 <0>         0.1351 
     48 H15         7.6166   11.1037    3.2132 H         1 <0>         0.1351 
     49 H16         5.5201   10.5172    4.4373 H         1 <0>         0.1495 
     50 H17         6.9210   10.4691    5.5374 H         1 <0>         0.1495 
     51 H18         6.1557   13.7654    7.0866 H         1 <0>         0.1495 
     52 H19         7.2901   12.3991    7.1097 H         1 <0>         0.1495 
     53 H20         8.3070   14.3380    5.8617 H         1 <0>         0.1351 
     54 H21         6.9428   14.4781    4.8232 H         1 <0>         0.1351 
     55 H22         4.2393   10.5849    6.3883 H         1 <0>         0.1442 
     56 H23         5.4117   11.0537    7.6223 H         1 <0>         0.1442 
     57 H24         2.9829   11.8021    8.0731 H         1 <0>         0.0701 
     58 H25         4.1367   13.1033    8.1509 H         1 <0>         0.0701 
     59 H26         2.1829   13.4691    6.8567 H         1 <0>         0.4659 
     60 H27         8.9768   11.6517    2.4055 H         1 <0>         0.2629 
     61 H28         4.9900   12.7248    5.2419 H         1 <0>         0.3140 
@<TRIPOS>BOND
     1    1    2 1    
     2    1   34 1    
     3    1   35 1    
     4    1   36 1    
     5    2    7 ar   
     6    2    3 ar   
     7    3    4 ar   
     8    3   37 1    
     9    4    5 ar   
    10    4   38 1    
    11    5    6 ar   
    12    5   39 1    
    13    6    7 ar   
    14    6   33 1    
    15    7    8 1    
    16    8    9 am   BACKBONE|DICT|INTERRES
    17    8   40 1    
    18    9   10 2    
    19    9   11 1    
    20   11   15 1    
    21   11   12 2    
    22   12   13 1    
    23   12   41 1    
    24   13   14 2    
    25   14   15 1    
    26   14   16 1    
    27   16   17 1    
    28   16   42 1    
    29   17   18 ar   
    30   17   22 ar   
    31   18   43 1    
    32   18   19 ar   
    33   19   24 2    
    34   19   20 ar   
    35   20   60 1    
    36   20   21 ar   
    37   21   23 1    
    38   21   22 ar   
    39   23   44 1    
    40   23   45 1    
    41   23   46 1    
    42   24   29 1    
    43   24   25 1    
    44   25   26 1    
    45   25   47 1    
    46   25   48 1    
    47   26   27 1    
    48   26   49 1    
    49   26   50 1    
    50   27   28 1    
    51   27   30 1    
    52   27   61 1    
    53   28   29 1    
    54   28   51 1    
    55   28   52 1    
    56   29   53 1    
    57   29   54 1    
    58   30   31 1    
    59   30   55 1    
    60   30   56 1    
    61   31   32 1    
    62   31   57 1    
    63   31   58 1    
    64   32   59 1    
@<TRIPOS>SUBSTRUCTURE
     1 <0>         1 GROUP             0       ****    0 ROOT    
@<TRIPOS>MOLECULE
CHEMBL1421
60   63    1
SMALL
USER_CHARGES


@<TRIPOS>ATOM
      1 C1         21.6298   14.3412    6.1102 C.3       1 <0>        -0.1249 
      2 C2         21.6129   15.7988    5.7561 C.ar      1 <0>        -0.0561 
      3 C3         22.7577   16.5398    6.0648 C.ar      1 <0>        -0.1221 
      4 C4         22.8341   17.8940    5.7698 C.ar      1 <0>        -0.1066 
      5 C5         21.7321   18.5306    5.2259 C.ar      1 <0>        -0.1203 
      6 C6         20.5749   17.8031    4.9542 C.ar      1 <0>         0.0856 
      7 C7         20.4941   16.4214    5.1872 C.ar      1 <0>         0.0210 
      8 N1         19.3217   15.6876    4.8477 N.am      1 <0>        -0.3617 
      9 C8         18.1302   15.9131    5.4476 C.2       1 <0>         0.4720 
     10 O1         18.0236   16.5923    6.4644 O.2       1 <0>        -0.4859 
     11 C9         16.9196   15.4241    4.8388 C.2       1 <0>        -0.2104 
     12 C10        15.6324   15.7400    5.2633 C.2       1 <0>        -0.0691 
     13 N2         14.6388   15.1193    4.6760 N.2       1 <0>        -0.1843 
     14 C11        15.0318   14.2537    3.7747 C.2       1 <0>         0.1237 
     15 S1         16.7739   14.2483    3.5440 S.3       1 <0>         0.2044 
     16 N3         14.1866   13.3944    3.0771 N.pl3     1 <0>        -0.5184 
     17 C12        12.7864   13.2405    3.2466 C.ar      1 <0>         0.3862 
     18 C13        12.0308   12.5062    2.3111 C.ar      1 <0>        -0.2583 
     19 C14        10.6239   12.4710    2.4647 C.ar      1 <0>         0.3718 
     20 N4         10.0319   13.1297    3.4938 N.ar      1 <0>        -0.3299 
     21 C15        10.8315   13.7565    4.3672 C.ar      1 <0>         0.1534 
     22 N5         12.1741   13.8502    4.2972 N.ar      1 <0>        -0.3028 
     23 C16        10.1500   14.4730    5.4906 C.3       1 <0>        -0.1146 
     24 N6          9.7363   11.8489    1.5769 N.pl3     1 <0>        -0.4378 
     25 C17         8.2754   11.8129    1.8663 C.3       1 <0>        -0.0764 
     26 C18         7.3321   11.3888    0.7207 C.3       1 <0>         0.0590 
     27 N7          7.8439   10.0760    0.1097 N.4       1 <0>        -0.4430 
     28 C19         9.2674   10.3374   -0.4047 C.3       1 <0>         0.0590 
     29 C20        10.1689   10.6795    0.8009 C.3       1 <0>        -0.0764 
     30 C21         6.9017    9.5724   -1.0133 C.3       1 <0>         0.0091 
     31 C22         7.2190    8.1093   -1.3896 C.3       1 <0>         0.1262 
     32 O2          7.2279    7.2832   -0.2392 O.3       1 <0>        -0.6293 
     33 Cl1        19.2317   18.6536    4.3576 Cl        1 <0>        -0.1476 
     34 H1         22.3651   13.8543    5.4740 H         1 <0>         0.0741 
     35 H2         21.9814   14.2597    7.1335 H         1 <0>         0.0741 
     36 H3         20.6581   13.8535    6.0656 H         1 <0>         0.0741 
     37 H4         23.6045   16.0514    6.5290 H         1 <0>         0.1417 
     38 H5         23.7305   18.4526    5.9995 H         1 <0>         0.1443 
     39 H6         21.7787   19.5908    5.0320 H         1 <0>         0.1513 
     40 H7         19.3753   15.0757    4.0484 H         1 <0>         0.3009 
     41 H8         15.4034   16.4319    6.0610 H         1 <0>         0.1968 
     42 H9         14.5486   12.8402    2.3170 H         1 <0>         0.3381 
     43 H10        12.5229   12.0223    1.4835 H         1 <0>         0.1774 
     44 H11        10.5131   14.1406    6.4631 H         1 <0>         0.0990 
     45 H12        10.4314   15.5021    5.3275 H         1 <0>         0.0990 
     46 H13         9.0627   14.3823    5.4642 H         1 <0>         0.0990 
     47 H14         8.1797   11.0525    2.6438 H         1 <0>         0.1102 
     48 H15         7.9167   12.7608    2.2708 H         1 <0>         0.1102 
     49 H16         6.3422   11.1656    1.1218 H         1 <0>         0.1314 
     50 H17         7.2629   12.1338   -0.0747 H         1 <0>         0.1314 
     51 H18         9.6162    9.4193   -0.8700 H         1 <0>         0.1314 
     52 H19         9.2315   11.1293   -1.1573 H         1 <0>         0.1314 
     53 H20        11.2010   10.7592    0.4654 H         1 <0>         0.1102 
     54 H21        10.1213    9.8593    1.5181 H         1 <0>         0.1102 
     55 H22         5.8838    9.6499   -0.6273 H         1 <0>         0.1365 
     56 H23         7.0085   10.2593   -1.8553 H         1 <0>         0.1365 
     57 H24         6.4607    7.7345   -2.0784 H         1 <0>         0.0674 
     58 H25         8.1669    8.0299   -1.9220 H         1 <0>         0.0674 
     59 H26         7.5237    6.4013   -0.4828 H         1 <0>         0.4555 
     60 H27         7.8813    9.3500    0.8182 H         1 <0>         0.3051 
@<TRIPOS>BOND
     1    1    2 1    
     2    1   34 1    
     3    1   35 1    
     4    1   36 1    
     5    2    7 ar   
     6    2    3 ar   
     7    3    4 ar   
     8    3   37 1    
     9    4    5 ar   
    10    4   38 1    
    11    5    6 ar   
    12    5   39 1    
    13    6    7 ar   
    14    6   33 1    
    15    7    8 1    
    16    8    9 am   BACKBONE|DICT|INTERRES
    17    8   40 1    
    18    9   10 2    
    19    9   11 1    
    20   11   15 1    
    21   11   12 2    
    22   12   13 1    
    23   12   41 1    
    24   13   14 2    
    25   14   15 1    
    26   14   16 1    
    27   16   17 1    
    28   16   42 1    
    29   17   22 ar   
    30   17   18 ar   
    31   18   19 ar   
    32   18   43 1    
    33   19   20 ar   
    34   19   24 1    
    35   20   21 ar   
    36   21   22 ar   
    37   21   23 1    
    38   23   44 1    
    39   23   45 1    
    40   23   46 1    
    41   24   29 1    
    42   24   25 1    
    43   25   26 1    
    44   25   47 1    
    45   25   48 1    
    46   26   27 1    
    47   26   49 1    
    48   26   50 1    
    49   27   28 1    
    50   27   30 1    
    51   27   60 1    
    52   28   29 1    
    53   28   51 1    
    54   28   52 1    
    55   29   53 1    
    56   29   54 1    
    57   30   31 1    
    58   30   55 1    
    59   30   56 1    
    60   31   32 1    
    61   31   57 1    
    62   31   58 1    
    63   32   59 1    
@<TRIPOS>SUBSTRUCTURE
     1 <0>         1 GROUP             0       ****    0 ROOT    
@<TRIPOS>MOLECULE
CHEMBL1421
59   62    1
SMALL
USER_CHARGES


@<TRIPOS>ATOM
      1 C1         21.1027   14.7096    4.6857 C.3       1 <0>        -0.1252 
      2 C2         21.1202   16.1902    4.9618 C.ar      1 <0>        -0.0560 
      3 C3         22.3400   16.7976    5.2503 C.ar      1 <0>        -0.1248 
      4 C4         22.4162   18.1492    5.5413 C.ar      1 <0>        -0.1124 
      5 C5         21.2395   18.8698    5.6644 C.ar      1 <0>        -0.1238 
      6 C6         19.9997   18.2535    5.4941 C.ar      1 <0>         0.0847 
      7 C7         19.9363   16.9375    5.0238 C.ar      1 <0>         0.0320 
      8 N1         18.6989   16.3771    4.6665 N.am      1 <0>        -0.3736 
      9 C8         17.9065   15.7391    5.5404 C.2       1 <0>         0.4789 
     10 O1         18.2259   15.4541    6.6931 O.2       1 <0>        -0.4903 
     11 C9         16.5944   15.4375    5.0683 C.2       1 <0>        -0.2354 
     12 C10        15.4289   15.4538    5.8182 C.2       1 <0>        -0.0640 
     13 N2         14.3546   14.9643    5.2466 N.2       1 <0>        -0.1783 
     14 C11        14.5907   14.4618    4.0634 C.2       1 <0>         0.1482 
     15 S1         16.2453   14.6533    3.5409 S.3       1 <0>         0.1887 
     16 N3         13.6749   13.8012    3.2651 N.pl3     1 <0>        -0.5150 
     17 C12        12.3066   13.5498    3.5093 C.ar      1 <0>         0.3737 
     18 C13        11.5531   12.9313    2.5028 C.ar      1 <0>        -0.2603 
     19 C14        10.1761   12.7332    2.7191 C.ar      1 <0>         0.4141 
     20 N4          9.5903   13.1997    3.8561 N.ar      1 <0>        -0.3144 
     21 C15        10.3944   13.7323    4.8010 C.ar      1 <0>         0.1504 
     22 N5         11.7279   13.9346    4.6821 N.ar      1 <0>        -0.3677 
     23 C16         9.7459   14.0030    6.1438 C.3       1 <0>        -0.1086 
     24 N6          9.3150   12.3285    1.6981 N.pl3     1 <0>        -0.4552 
     25 C17         7.8463   12.4707    1.7358 C.3       1 <0>        -0.0214 
     26 C18         7.2468   12.8786    0.3741 C.3       1 <0>         0.0958 
     27 N7          7.5649   11.8802   -0.6435 N.3       1 <0>        -0.7040 
     28 C19         9.0203   11.7477   -0.7750 C.3       1 <0>         0.0958 
     29 C20         9.7218   11.4606    0.5792 C.3       1 <0>        -0.0214 
     30 C21         6.9188   12.2376   -1.9167 C.3       1 <0>         0.0851 
     31 C22         7.0476   11.1728   -3.0270 C.3       1 <0>         0.1329 
     32 O2          6.4133    9.9767   -2.6237 O.3       1 <0>        -0.6631 
     33 Cl1        18.5801   19.0538    6.0646 Cl        1 <0>        -0.1465 
     34 H1         20.7738   14.5201    3.6644 H         1 <0>         0.0749 
     35 H2         22.0769   14.2538    4.8647 H         1 <0>         0.0749 
     36 H3         20.3943   14.2538    5.3747 H         1 <0>         0.0749 
     37 H4         23.2317   16.2095    5.2645 H         1 <0>         0.1384 
     38 H5         23.3684   18.6122    5.7582 H         1 <0>         0.1394 
     39 H6         21.3026   19.8755    6.0429 H         1 <0>         0.1473 
     40 H7         18.3458   16.5792    3.7449 H         1 <0>         0.3034 
     41 H8         15.3446   15.8240    6.8315 H         1 <0>         0.1918 
     42 H9         13.9745   13.4393    2.3734 H         1 <0>         0.3315 
     43 H10        12.0210   12.6574    1.5718 H         1 <0>         0.1787 
     44 H11         9.3903   13.0667    6.5766 H         1 <0>         0.0890 
     45 H12        10.4313   14.4559    6.8582 H         1 <0>         0.0890 
     46 H13         8.8802   14.6536    6.0252 H         1 <0>         0.0890 
     47 H14         7.4215   11.5186    2.0595 H         1 <0>         0.0747 
     48 H15         7.5360   13.2006    2.4835 H         1 <0>         0.0747 
     49 H16         6.1635   12.9451    0.4870 H         1 <0>         0.0706 
     50 H17         7.6246   13.8635    0.0911 H         1 <0>         0.0706 
     51 H18         9.2338   10.9181   -1.4464 H         1 <0>         0.0706 
     52 H19         9.4491   12.6667   -1.1815 H         1 <0>         0.0706 
     53 H20        10.8015   11.4034    0.4641 H         1 <0>         0.0747 
     54 H21         9.4287   10.4556    0.8877 H         1 <0>         0.0747 
     55 H22         5.8744   12.5369   -1.8121 H         1 <0>         0.0747 
     56 H23         7.4034   13.1409   -2.2909 H         1 <0>         0.0747 
     57 H24         6.5656   11.5306   -3.9368 H         1 <0>         0.0519 
     58 H25         8.0869   10.9839   -3.2963 H         1 <0>         0.0519 
     59 H26         6.7633    9.7490   -1.7568 H         1 <0>         0.4243 
@<TRIPOS>BOND
     1    1    2 1    
     2    1   34 1    
     3    1   35 1    
     4    1   36 1    
     5    2    7 ar   
     6    2    3 ar   
     7    3    4 ar   
     8    3   37 1    
     9    4    5 ar   
    10    4   38 1    
    11    5    6 ar   
    12    5   39 1    
    13    6    7 ar   
    14    6   33 1    
    15    7    8 1    
    16    8    9 am   BACKBONE|DICT|INTERRES
    17    8   40 1    
    18    9   10 2    
    19    9   11 1    
    20   11   15 1    
    21   11   12 2    
    22   12   13 1    
    23   12   41 1    
    24   13   14 2    
    25   14   15 1    
    26   14   16 1    
    27   16   17 1    
    28   16   42 1    
    29   17   22 ar   
    30   17   18 ar   
    31   18   19 ar   
    32   18   43 1    
    33   19   20 ar   
    34   19   24 1    
    35   20   21 ar   
    36   21   22 ar   
    37   21   23 1    
    38   23   44 1    
    39   23   45 1    
    40   23   46 1    
    41   24   29 1    
    42   24   25 1    
    43   25   26 1    
    44   25   47 1    
    45   25   48 1    
    46   26   27 1    
    47   26   49 1    
    48   26   50 1    
    49   27   28 1    
    50   27   30 1    
    51   28   29 1    
    52   28   51 1    
    53   28   52 1    
    54   29   53 1    
    55   29   54 1    
    56   30   31 1    
    57   30   55 1    
    58   30   56 1    
    59   31   32 1    
    60   31   57 1    
    61   31   58 1    
    62   32   59 1    
@<TRIPOS>SUBSTRUCTURE
     1 <0>         1 GROUP             0       ****    0 ROOT    
@<TRIPOS>MOLECULE
CHEMBL1421
60   63    1
SMALL
USER_CHARGES


@<TRIPOS>ATOM
      1 C1         19.0571   18.5339    4.6707 C.3       1 <0>        -0.1259 
      2 C2         20.0512   17.5646    5.1851 C.ar      1 <0>        -0.0542 
      3 C3         21.3822   17.9632    5.3597 C.ar      1 <0>        -0.1197 
      4 C4         22.3221   17.0458    5.8078 C.ar      1 <0>        -0.1031 
      5 C5         21.9157   15.7514    6.1079 C.ar      1 <0>        -0.1188 
      6 C6         20.5800   15.3760    5.9524 C.ar      1 <0>         0.0862 
      7 C7         19.6450   16.2588    5.4317 C.ar      1 <0>         0.0150 
      8 N1         18.3167   15.8537    5.1700 N.am      1 <0>        -0.3581 
      9 C8         17.9865   15.0910    4.1048 C.2       1 <0>         0.4671 
     10 O1         18.7986   14.7032    3.2659 O.2       1 <0>        -0.4709 
     11 C9         16.6052   14.7005    3.9987 C.2       1 <0>        -0.1782 
     12 C10        16.0663   13.7304    3.1547 C.2       1 <0>        -0.0916 
     13 N2         14.7671   13.5367    3.2283 N.2       1 <0>        -0.0406 
     14 C11        14.1900   14.3503    4.0830 C.2       1 <0>         0.0057 
     15 S1         15.2865   15.4539    4.8701 S.3       1 <0>         0.1588 
     16 N3         12.8498   14.3916    4.4224 N.pl3     1 <0>        -0.2342 
     17 C12        11.7646   13.6979    3.9007 C.ar      1 <0>         0.3314 
     18 C13        10.5226   13.8466    4.4488 C.ar      1 <0>        -0.3060 
     19 C14         9.4430   13.0967    3.9294 C.ar      1 <0>         0.0357 
     20 N4          9.7318   12.3217    2.8582 N.pl3     1 <0>        -0.1799 
     21 C15        11.0327   12.1755    2.3478 C.ar      1 <0>         0.3582 
     22 N5         11.9972   12.8444    2.8528 N.2       1 <0>        -0.4061 
     23 C16        11.2656   11.1436    1.2749 C.3       1 <0>        -0.1799 
     24 N6          8.1804   13.0721    4.4225 N.pl3     1 <0>         0.0590 
     25 C17         7.0490   12.3558    3.7650 C.3       1 <0>        -0.1139 
     26 C18         6.0929   11.6921    4.7763 C.3       1 <0>         0.0830 
     27 N7          5.5816   12.6776    5.7251 N.3       1 <0>        -0.6917 
     28 C19         6.7134   13.2383    6.4646 C.3       1 <0>         0.0830 
     29 C20         7.6948   13.9584    5.5119 C.3       1 <0>        -0.1139 
     30 C21         4.5976   12.0328    6.6132 C.3       1 <0>         0.0770 
     31 C22         3.7970   12.9894    7.5247 C.3       1 <0>         0.1362 
     32 O2          2.9379   13.8341    6.7786 O.3       1 <0>        -0.6533 
     33 Cl1        20.0319   13.8537    6.4647 Cl        1 <0>        -0.1531 
     34 H1         18.5553   19.0596    5.4828 H         1 <0>         0.0750 
     35 H2         19.6122   19.1987    4.0645 H         1 <0>         0.0750 
     36 H3         18.3515   18.0661    3.9884 H         1 <0>         0.0750 
     37 H4         21.6945   18.9755    5.1446 H         1 <0>         0.1447 
     38 H5         23.3549   17.3366    5.9401 H         1 <0>         0.1471 
     39 H6         22.6486   15.0538    6.4641 H         1 <0>         0.1530 
     40 H7         17.5982   16.1531    5.8100 H         1 <0>         0.2970 
     41 H8         16.6447   13.1209    2.4740 H         1 <0>         0.2091 
     42 H9         12.6127   15.0200    5.1751 H         1 <0>         0.2986 
     43 H10        10.3796   14.5199    5.2768 H         1 <0>         0.1873 
     44 H11        10.5507   11.2649    0.4649 H         1 <0>         0.1215 
     45 H12        12.2735   11.2071    0.8676 H         1 <0>         0.1215 
     46 H13        11.1484   10.1375    1.6769 H         1 <0>         0.1215 
     47 H14         6.5308   13.0933    3.1490 H         1 <0>         0.1038 
     48 H15         7.4102   11.6087    3.0631 H         1 <0>         0.1038 
     49 H16         5.2630   11.2567    4.2184 H         1 <0>         0.0913 
     50 H17         6.6055   10.8762    5.2907 H         1 <0>         0.0913 
     51 H18         6.3628   13.9624    7.1994 H         1 <0>         0.0913 
     52 H19         7.2357   12.4511    7.0094 H         1 <0>         0.0913 
     53 H20         8.5227   14.3854    6.0754 H         1 <0>         0.1038 
     54 H21         7.2205   14.8143    5.0285 H         1 <0>         0.1038 
     55 H22         3.9034   11.3663    6.0969 H         1 <0>         0.0875 
     56 H23         5.1467   11.3593    7.2767 H         1 <0>         0.0875 
     57 H24         3.1775   12.3979    8.2031 H         1 <0>         0.0544 
     58 H25         4.4367   13.5871    8.1707 H         1 <0>         0.0544 
     59 H26         2.4491   14.3806    7.3949 H         1 <0>         0.4362 
     60 H27         8.9823   11.7571    2.4886 H         1 <0>         0.2703 
@<TRIPOS>BOND
     1    1    2 1    
     2    1   34 1    
     3    1   35 1    
     4    1   36 1    
     5    2    7 ar   
     6    2    3 ar   
     7    3    4 ar   
     8    3   37 1    
     9    4    5 ar   
    10    4   38 1    
    11    5    6 ar   
    12    5   39 1    
    13    6    7 ar   
    14    6   33 1    
    15    7    8 1    
    16    8    9 am   BACKBONE|DICT|INTERRES
    17    8   40 1    
    18    9   10 2    
    19    9   11 1    
    20   11   15 1    
    21   11   12 2    
    22   12   13 1    
    23   12   41 1    
    24   13   14 2    
    25   14   15 1    
    26   14   16 1    
    27   16   17 1    
    28   16   42 1    
    29   17   18 ar   
    30   17   22 ar   
    31   18   43 1    
    32   18   19 ar   
    33   19   24 2    
    34   19   20 ar   
    35   20   60 1    
    36   20   21 ar   
    37   21   23 1    
    38   21   22 ar   
    39   23   44 1    
    40   23   45 1    
    41   23   46 1    
    42   24   29 1    
    43   24   25 1    
    44   25   26 1    
    45   25   47 1    
    46   25   48 1    
    47   26   27 1    
    48   26   49 1    
    49   26   50 1    
    50   27   28 1    
    51   27   30 1    
    52   28   29 1    
    53   28   51 1    
    54   28   52 1    
    55   29   53 1    
    56   29   54 1    
    57   30   31 1    
    58   30   55 1    
    59   30   56 1    
    60   31   32 1    
    61   31   57 1    
    62   31   58 1    
    63   32   59 1    
@<TRIPOS>SUBSTRUCTURE
     1 <0>         1 GROUP             0       ****    0 ROOT    
@<TRIPOS>MOLECULE
CHEMBL42136
61   64    1
SMALL
USER_CHARGES


@<TRIPOS>ATOM
      1 C1         18.7775   15.8262    4.4099 C.3       1 <0>        -0.0106 
      2 N1         17.2326   15.8088    4.4579 N.4       1 <0>        -0.4467 
      3 C2         16.7304   15.5089    5.8810 C.3       1 <0>         0.0389 
      4 C3         15.1982   15.3569    5.8624 C.3       1 <0>        -0.1590 
      5 C4         14.5608   14.4393    4.7748 C.3       1 <0>        -0.1377 
      6 C5         15.1257   14.8551    3.4220 C.3       1 <0>        -0.1590 
      7 C6         16.6661   14.8087    3.4187 C.3       1 <0>         0.0389 
      8 C7         13.0210   14.4950    4.8624 C.3       1 <0>         0.2070 
      9 O1         12.3727   13.7479    3.8288 O.3       1 <0>        -0.3750 
     10 C8         11.0176   13.4593    3.9449 C.ar      1 <0>         0.1682 
     11 C9         10.2411   13.8771    5.0347 C.ar      1 <0>        -0.2356 
     12 C10         8.8882   13.5139    5.1683 C.ar      1 <0>         0.1574 
     13 C11         8.2581   12.7469    4.1486 C.ar      1 <0>         0.0217 
     14 C12         9.0652   12.3242    3.0544 C.ar      1 <0>        -0.2227 
     15 C13        10.4275   12.6532    2.9612 C.ar      1 <0>         0.1496 
     16 O2         11.2486   12.1684    1.9581 O.3       1 <0>        -0.3696 
     17 C14        10.7586   11.1370    1.1036 C.3       1 <0>         0.1337 
     18 C15         6.8662   12.4149    4.3179 C.ar      1 <0>         0.2709 
     19 C16         6.2345   12.7937    5.5216 C.ar      1 <0>        -0.0720 
     20 C17         6.9543   13.5299    6.4604 C.ar      1 <0>         0.0890 
     21 N2          8.2414   13.9042    6.2961 N.ar      1 <0>        -0.2897 
     22 C18         4.8347   12.4959    5.8190 C.1       1 <0>         0.2490 
     23 N3          3.7259   12.2635    6.0491 N.1       1 <0>        -0.3912 
     24 N4          6.1254   11.7527    3.3139 N.pl3     1 <0>        -0.6523 
     25 C19         6.1294   12.0286    1.9377 C.ar      1 <0>         0.2343 
     26 C20         6.2298   13.3564    1.5076 C.ar      1 <0>        -0.1914 
     27 C21         6.2908   13.6804    0.1446 C.ar      1 <0>         0.1631 
     28 C22         6.2592   12.6379   -0.7903 C.ar      1 <0>         0.0410 
     29 C23         6.1653   11.3107   -0.3695 C.ar      1 <0>        -0.0669 
     30 C24         6.1016   10.9994    0.9888 C.ar      1 <0>         0.0234 
     31 Cl1         6.0132    9.3355    1.4587 Cl        1 <0>        -0.1211 
     32 Cl2         6.3448   12.9712   -2.4845 Cl        1 <0>        -0.1147 
     33 O3          6.3930   14.9766   -0.3272 O.3       1 <0>        -0.3568 
     34 C25         6.5777   16.0484    0.5899 C.3       1 <0>         0.1357 
     35 H1         19.0767   16.0844    3.3935 H         1 <0>         0.1252 
     36 H2         19.1254   16.5811    5.1171 H         1 <0>         0.1252 
     37 H3         19.1421   14.8343    4.6822 H         1 <0>         0.1252 
     38 H4         17.2746   14.6537    6.2488 H         1 <0>         0.1258 
     39 H5         17.0089   16.3740    6.4866 H         1 <0>         0.1258 
     40 H6         14.8417   15.0868    6.8567 H         1 <0>         0.1153 
     41 H7         14.8319   16.3580    5.6730 H         1 <0>         0.1153 
     42 H8         14.8316   13.3929    4.8645 H         1 <0>         0.1058 
     43 H9         14.7135   14.2286    2.6287 H         1 <0>         0.1153 
     44 H10        14.7689   15.8535    3.2073 H         1 <0>         0.1153 
     45 H11        17.0089   15.1740    2.4648 H         1 <0>         0.1258 
     46 H12        17.0772   13.8171    3.6221 H         1 <0>         0.1258 
     47 H13        12.7644   14.0728    5.8357 H         1 <0>         0.0506 
     48 H14        12.6679   15.5275    4.8442 H         1 <0>         0.0506 
     49 H15        10.6570   14.4695    5.8276 H         1 <0>         0.1560 
     50 H16         8.6190   11.6854    2.3114 H         1 <0>         0.1539 
     51 H17        10.3704   10.2871    1.6678 H         1 <0>         0.0469 
     52 H18         9.9792   11.5101    0.4373 H         1 <0>         0.0469 
     53 H19        11.5674   10.7517    0.4885 H         1 <0>         0.0469 
     54 H20         6.4969   13.8534    7.3872 H         1 <0>         0.1791 
     55 H21         5.3068   11.2556    3.6389 H         1 <0>         0.3256 
     56 H22         6.2568   14.1355    2.2547 H         1 <0>         0.1487 
     57 H23         6.1546   10.5183   -1.1021 H         1 <0>         0.1705 
     58 H24         5.7166   16.1649    1.2506 H         1 <0>         0.0394 
     59 H25         7.4770   15.9072    1.1921 H         1 <0>         0.0394 
     60 H26         6.7014   16.9797    0.0364 H         1 <0>         0.0394 
     61 H27        16.8828   16.7217    4.1977 H         1 <0>         0.3109 
@<TRIPOS>BOND
     1    1    2 1    
     2    1   35 1    
     3    1   36 1    
     4    1   37 1    
     5    2    7 1    
     6    2    3 1    
     7    2   61 1    
     8    3    4 1    
     9    3   38 1    
    10    3   39 1    
    11    4    5 1    
    12    4   40 1    
    13    4   41 1    
    14    5    6 1    
    15    5    8 1    
    16    5   42 1    
    17    6    7 1    
    18    6   43 1    
    19    6   44 1    
    20    7   45 1    
    21    7   46 1    
    22    8    9 1    
    23    8   47 1    
    24    8   48 1    
    25    9   10 1    
    26   10   15 ar   
    27   10   11 ar   
    28   11   12 ar   
    29   11   49 1    
    30   12   21 ar   
    31   12   13 ar   
    32   13   14 ar   
    33   13   18 ar   
    34   14   15 ar   
    35   14   50 1    
    36   15   16 1    
    37   16   17 1    
    38   17   51 1    
    39   17   52 1    
    40   17   53 1    
    41   18   19 ar   
    42   18   24 1    
    43   19   20 ar   
    44   19   22 1    
    45   20   21 ar   
    46   20   54 1    
    47   22   23 3    
    48   24   25 1    
    49   24   55 1    
    50   25   30 ar   
    51   25   26 ar   
    52   26   27 ar   
    53   26   56 1    
    54   27   28 ar   
    55   27   33 1    
    56   28   29 ar   
    57   28   32 1    
    58   29   30 ar   
    59   29   57 1    
    60   30   31 1    
    61   33   34 1    
    62   34   58 1    
    63   34   59 1    
    64   34   60 1    
@<TRIPOS>SUBSTRUCTURE
     1 <0>         1 GROUP             0       ****    0 ROOT    
@<TRIPOS>MOLECULE
CHEMBL1173200
71   75    1
SMALL
USER_CHARGES


@<TRIPOS>ATOM
      1 C1         11.6283    9.2517   -6.8058 C.3       1 <0>        -0.1336 
      2 C2         10.9900    8.6562   -5.5594 C.ar      1 <0>        -0.0471 
      3 C3         10.0764    9.4540   -4.8718 C.ar      1 <0>        -0.1298 
      4 C4          9.4014    8.9682   -3.7590 C.ar      1 <0>        -0.0959 
      5 C5          9.6182    7.6561   -3.3026 C.ar      1 <0>        -0.1764 
      6 C6         10.5770    6.8774   -3.9668 C.ar      1 <0>        -0.0943 
      7 C7         11.2707    7.3606   -5.0842 C.ar      1 <0>        -0.0817 
      8 C8         12.3223    6.4550   -5.7270 C.3       1 <0>        -0.0826 
      9 C9         13.7594    6.8754   -5.3547 C.3       1 <0>        -0.1162 
     10 C10        14.8096    5.8882   -5.8303 C.ar      1 <0>        -0.3483 
     11 C11        15.6950    5.8896   -6.9101 C.ar      1 <0>         0.0681 
     12 N1         16.4805    4.8350   -6.9685 N.2       1 <0>        -0.4093 
     13 C12        16.1083    4.0876   -5.8999 C.ar      1 <0>         0.2036 
     14 N2         15.0681    4.7016   -5.1803 N.pl3     1 <0>         0.4375 
     15 N3         14.4697    4.2249   -4.0743 N.2       1 <0>        -0.3535 
     16 C13        14.9524    3.0357   -3.6341 C.ar      1 <0>         0.0586 
     17 C14        15.9823    2.3306   -4.2594 C.ar      1 <0>        -0.3036 
     18 C15        16.5749    2.8528   -5.4135 C.ar      1 <0>        -0.1308 
     19 C16         8.8491    7.0778   -2.1306 C.2       1 <0>         0.5569 
     20 O1          9.1685    5.9859   -1.6520 O.2       1 <0>        -0.4914 
     21 N4          7.7992    7.8144   -1.7058 N.am      1 <0>        -0.4128 
     22 C17         6.9393    7.5983   -0.6181 C.ar      1 <0>         0.0573 
     23 C18         7.2322    6.7622    0.4653 C.ar      1 <0>        -0.0913 
     24 C19         6.3392    6.6563    1.5258 C.ar      1 <0>        -0.1339 
     25 C20         5.1422    7.3792    1.5304 C.ar      1 <0>        -0.0559 
     26 C21         4.8230    8.2150    0.4353 C.ar      1 <0>        -0.0702 
     27 C22         5.7411    8.3138   -0.6214 C.ar      1 <0>        -0.0751 
     28 C23         3.5100    9.0148    0.3614 C.3       1 <0>         0.4656 
     29 F1          3.3317    9.5818   -0.8347 F         1 <0>        -0.1724 
     30 F2          2.4578    8.2228    0.5739 F         1 <0>        -0.1724 
     31 F3          3.5069    9.9948    1.2662 F         1 <0>        -0.1724 
     32 C24         4.2440    7.2498    2.7600 C.3       1 <0>         0.1406 
     33 N5          4.2609    8.4637    3.5821 N.3       1 <0>        -0.6920 
     34 C25         5.5764    8.6879    4.2076 C.3       1 <0>         0.0458 
     35 C26         5.6090    9.9760    5.0597 C.3       1 <0>         0.0644 
     36 N6          4.4324    9.9778    6.0642 N.4       1 <0>        -0.4468 
     37 C27         3.0985    9.7684    5.3148 C.3       1 <0>         0.0644 
     38 C28         3.1716    8.4266    4.5639 C.3       1 <0>         0.0458 
     39 C29         4.4029   11.2942    6.8649 C.3       1 <0>        -0.0082 
     40 H1         10.8693    9.3882   -7.5751 H         1 <0>         0.0779 
     41 H2         12.0318   10.2388   -6.5750 H         1 <0>         0.0779 
     42 H3         12.4315    8.6523   -7.2241 H         1 <0>         0.0779 
     43 H4          9.8848   10.4671   -5.1990 H         1 <0>         0.1411 
     44 H5          8.7054    9.6362   -3.2716 H         1 <0>         0.1371 
     45 H6         10.7895    5.8775   -3.6133 H         1 <0>         0.1347 
     46 H7         12.1474    5.4250   -5.4113 H         1 <0>         0.0793 
     47 H8         12.1835    6.4451   -6.8084 H         1 <0>         0.0793 
     48 H9         13.9655    7.8535   -5.7798 H         1 <0>         0.0901 
     49 H10        13.8339    7.0047   -4.2727 H         1 <0>         0.0901 
     50 H11        15.7627    6.6660   -7.6582 H         1 <0>         0.1607 
     51 H12        14.4875    2.6492   -2.7356 H         1 <0>         0.1693 
     52 H13        16.3149    1.3885   -3.8485 H         1 <0>         0.1920 
     53 H14        17.3746    2.3271   -5.9163 H         1 <0>         0.2013 
     54 H15         7.6006    8.6398   -2.2480 H         1 <0>         0.3145 
     55 H16         8.1620    6.2185    0.5200 H         1 <0>         0.1550 
     56 H17         6.5977    6.0264    2.3648 H         1 <0>         0.1337 
     57 H18         5.5225    8.9602   -1.4597 H         1 <0>         0.1668 
     58 H19         3.2307    7.0251    2.4263 H         1 <0>         0.0906 
     59 H20         4.5476    6.3910    3.3628 H         1 <0>         0.0906 
     60 H21         5.7596    7.8426    4.8643 H         1 <0>         0.1038 
     61 H22         6.3730    8.7337    3.4645 H         1 <0>         0.1038 
     62 H23         6.5226   10.0043    5.6581 H         1 <0>         0.1323 
     63 H24         5.5266   10.8760    4.4466 H         1 <0>         0.1323 
     64 H25         2.3083    9.7338    6.0645 H         1 <0>         0.1323 
     65 H26         2.9384   10.6167    4.6476 H         1 <0>         0.1323 
     66 H27         2.2141    8.2513    4.0704 H         1 <0>         0.1038 
     67 H28         3.3516    7.6127    5.2710 H         1 <0>         0.1038 
     68 H29         4.1203   12.1069    6.1937 H         1 <0>         0.1257 
     69 H30         3.6721   11.1611    7.6660 H         1 <0>         0.1257 
     70 H31         5.4042   11.4526    7.2645 H         1 <0>         0.1257 
     71 H32         4.5087    9.1958    6.7136 H         1 <0>         0.3076 
@<TRIPOS>BOND
     1    1    2 1    
     2    1   40 1    
     3    1   41 1    
     4    1   42 1    
     5    2    7 ar   
     6    2    3 ar   
     7    3    4 ar   
     8    3   43 1    
     9    4    5 ar   
    10    4   44 1    
    11    5    6 ar   
    12    5   19 1    
    13    6    7 ar   
    14    6   45 1    
    15    7    8 1    
    16    8    9 1    
    17    8   46 1    
    18    8   47 1    
    19    9   10 1    
    20    9   48 1    
    21    9   49 1    
    22   10   14 ar   
    23   10   11 ar   
    24   11   12 ar   
    25   11   50 1    
    26   12   13 ar   
    27   13   18 ar   
    28   13   14 ar   
    29   14   15 ar   
    30   15   16 ar   
    31   16   17 ar   
    32   16   51 1    
    33   17   18 ar   
    34   17   52 1    
    35   18   53 1    
    36   19   20 2    
    37   19   21 am   BACKBONE|DICT|INTERRES
    38   21   22 1    
    39   21   54 1    
    40   22   27 ar   
    41   22   23 ar   
    42   23   24 ar   
    43   23   55 1    
    44   24   25 ar   
    45   24   56 1    
    46   25   26 ar   
    47   25   32 1    
    48   26   27 ar   
    49   26   28 1    
    50   27   57 1    
    51   28   29 1    
    52   28   30 1    
    53   28   31 1    
    54   32   33 1    
    55   32   58 1    
    56   32   59 1    
    57   33   38 1    
    58   33   34 1    
    59   34   35 1    
    60   34   60 1    
    61   34   61 1    
    62   35   36 1    
    63   35   62 1    
    64   35   63 1    
    65   36   37 1    
    66   36   39 1    
    67   36   71 1    
    68   37   38 1    
    69   37   64 1    
    70   37   65 1    
    71   38   66 1    
    72   38   67 1    
    73   39   68 1    
    74   39   69 1    
    75   39   70 1    
@<TRIPOS>SUBSTRUCTURE
     1 <0>         1 GROUP             0       ****    0 ROOT    
@<TRIPOS>MOLECULE
CHEMBL1173200
71   75    1
SMALL
USER_CHARGES


@<TRIPOS>ATOM
      1 C1          7.0857   12.2089   -5.3476 C.3       1 <0>        -0.1349 
      2 C2          7.8749   10.9672   -4.9569 C.ar      1 <0>        -0.0428 
      3 C3          8.0669    9.9541   -5.9019 C.ar      1 <0>        -0.1283 
      4 C4          8.8072    8.8132   -5.5843 C.ar      1 <0>        -0.0958 
      5 C5          9.3548    8.6593   -4.3032 C.ar      1 <0>        -0.1811 
      6 C6          9.1353    9.6606   -3.3537 C.ar      1 <0>        -0.0934 
      7 C7          8.4221   10.8193   -3.6710 C.ar      1 <0>        -0.0791 
      8 C8          8.3273   11.9002   -2.6022 C.3       1 <0>        -0.0837 
      9 C9          7.1739   11.6912   -1.5981 C.3       1 <0>        -0.1151 
     10 C10         7.4189   12.4664   -0.3147 C.ar      1 <0>        -0.3517 
     11 C11         6.8103   13.5884    0.2521 C.ar      1 <0>         0.0684 
     12 N1          7.3739   14.0032    1.3696 N.2       1 <0>        -0.4069 
     13 C12         8.3931   13.1280    1.5685 C.ar      1 <0>         0.2042 
     14 N2          8.4358   12.1489    0.5612 N.pl3     1 <0>         0.4394 
     15 N3          9.3124   11.1300    0.4696 N.2       1 <0>        -0.3577 
     16 C13        10.2633   11.1107    1.4362 C.ar      1 <0>         0.0608 
     17 C14        10.3403   12.0438    2.4693 C.ar      1 <0>        -0.3026 
     18 C15         9.3838   13.0585    2.5639 C.ar      1 <0>        -0.1302 
     19 C16        10.1719    7.4541   -3.9213 C.2       1 <0>         0.5599 
     20 O1         10.0784    6.9806   -2.7909 O.2       1 <0>        -0.4865 
     21 N4         11.0235    7.0163   -4.8693 N.am      1 <0>        -0.4269 
     22 C17        11.9481    5.9631   -4.7709 C.ar      1 <0>         0.0934 
     23 C18        11.7724    4.8551   -3.9324 C.ar      1 <0>        -0.0903 
     24 C19        12.7377    3.8568   -3.8817 C.ar      1 <0>        -0.1039 
     25 C20        13.8975    3.9373   -4.6618 C.ar      1 <0>        -0.1186 
     26 C21        14.0839    5.0452   -5.5193 C.ar      1 <0>        -0.0701 
     27 C22        13.0924    6.0391   -5.5651 C.ar      1 <0>        -0.0727 
     28 C23        15.3417    5.2093   -6.3844 C.3       1 <0>         0.4631 
     29 F1         15.3546    6.3590   -7.0640 F         1 <0>        -0.1701 
     30 F2         16.4278    5.1923   -5.6132 F         1 <0>        -0.1701 
     31 F3         15.4200    4.2127   -7.2641 F         1 <0>        -0.1701 
     32 C24        14.8991    2.7887   -4.5461 C.3       1 <0>         0.0827 
     33 N5         15.5104    2.6074   -3.1374 N.4       1 <0>        -0.4393 
     34 C25        16.4485    3.7765   -2.7643 C.3       1 <0>         0.0644 
     35 C26        17.0187    3.5345   -1.3515 C.3       1 <0>         0.0438 
     36 N6         17.7221    2.2452   -1.2752 N.3       1 <0>        -0.6957 
     37 C27        16.8613    1.1072   -1.6260 C.3       1 <0>         0.0438 
     38 C28        16.2797    1.2687   -3.0453 C.3       1 <0>         0.0644 
     39 C29        18.2644    2.0584    0.0684 C.3       1 <0>         0.0459 
     40 H1          7.7428   13.0795   -5.3760 H         1 <0>         0.0797 
     41 H2          6.6022   12.1011   -6.3185 H         1 <0>         0.0797 
     42 H3          6.3031   12.4051   -4.6142 H         1 <0>         0.0797 
     43 H4          7.6491   10.0515   -6.8940 H         1 <0>         0.1433 
     44 H5          8.9373    8.0489   -6.3381 H         1 <0>         0.1360 
     45 H6          9.5524    9.5610   -2.3600 H         1 <0>         0.1348 
     46 H7          9.2864   11.8929   -2.0838 H         1 <0>         0.0805 
     47 H8          8.2811   12.8912   -3.0541 H         1 <0>         0.0805 
     48 H9          6.2317   11.9907   -2.0606 H         1 <0>         0.0896 
     49 H10         7.0682   10.6313   -1.3657 H         1 <0>         0.0896 
     50 H11         5.9650   14.1149   -0.1691 H         1 <0>         0.1602 
     51 H12        10.9858   10.3071    1.3702 H         1 <0>         0.1698 
     52 H13        11.1283   11.9661    3.2039 H         1 <0>         0.1930 
     53 H14         9.4147   13.7803    3.3655 H         1 <0>         0.2023 
     54 H15        11.0602    7.5668   -5.7144 H         1 <0>         0.3230 
     55 H16        10.9020    4.7544   -3.3009 H         1 <0>         0.1683 
     56 H17        12.6001    3.0569   -3.1566 H         1 <0>         0.1447 
     57 H18        13.2169    6.8963   -6.2115 H         1 <0>         0.1769 
     58 H19        14.3829    1.8517   -4.7578 H         1 <0>         0.1283 
     59 H20        15.7448    2.8515   -5.2297 H         1 <0>         0.1283 
     60 H21        17.2292    3.8417   -3.5230 H         1 <0>         0.1295 
     61 H22        15.8330    4.6773   -2.7717 H         1 <0>         0.1295 
     62 H23        17.6853    4.3567   -1.0889 H         1 <0>         0.1033 
     63 H24        16.1940    3.5182   -0.6393 H         1 <0>         0.1033 
     64 H25        17.4226    0.1727   -1.5745 H         1 <0>         0.1033 
     65 H26        16.0352    1.0529   -0.9130 H         1 <0>         0.1033 
     66 H27        15.5511    0.4814   -3.2398 H         1 <0>         0.1295 
     67 H28        17.0529    1.2721   -3.8155 H         1 <0>         0.1295 
     68 H29        17.4741    2.0207    0.8214 H         1 <0>         0.0847 
     69 H30        18.8346    1.1312    0.1297 H         1 <0>         0.0847 
     70 H31        18.9406    2.8724    0.3309 H         1 <0>         0.0847 
     71 H32        14.7679    2.5915   -2.4461 H         1 <0>         0.3095 
@<TRIPOS>BOND
     1    1    2 1    
     2    1   40 1    
     3    1   41 1    
     4    1   42 1    
     5    2    7 ar   
     6    2    3 ar   
     7    3    4 ar   
     8    3   43 1    
     9    4    5 ar   
    10    4   44 1    
    11    5    6 ar   
    12    5   19 1    
    13    6    7 ar   
    14    6   45 1    
    15    7    8 1    
    16    8    9 1    
    17    8   46 1    
    18    8   47 1    
    19    9   10 1    
    20    9   48 1    
    21    9   49 1    
    22   10   14 ar   
    23   10   11 ar   
    24   11   12 ar   
    25   11   50 1    
    26   12   13 ar   
    27   13   18 ar   
    28   13   14 ar   
    29   14   15 ar   
    30   15   16 ar   
    31   16   17 ar   
    32   16   51 1    
    33   17   18 ar   
    34   17   52 1    
    35   18   53 1    
    36   19   20 2    
    37   19   21 am   BACKBONE|DICT|INTERRES
    38   21   22 1    
    39   21   54 1    
    40   22   27 ar   
    41   22   23 ar   
    42   23   24 ar   
    43   23   55 1    
    44   24   25 ar   
    45   24   56 1    
    46   25   26 ar   
    47   25   32 1    
    48   26   27 ar   
    49   26   28 1    
    50   27   57 1    
    51   28   29 1    
    52   28   30 1    
    53   28   31 1    
    54   32   33 1    
    55   32   58 1    
    56   32   59 1    
    57   33   38 1    
    58   33   34 1    
    59   33   71 1    
    60   34   35 1    
    61   34   60 1    
    62   34   61 1    
    63   35   36 1    
    64   35   62 1    
    65   35   63 1    
    66   36   37 1    
    67   36   39 1    
    68   37   38 1    
    69   37   64 1    
    70   37   65 1    
    71   38   66 1    
    72   38   67 1    
    73   39   68 1    
    74   39   69 1    
    75   39   70 1    
@<TRIPOS>SUBSTRUCTURE
     1 <0>         1 GROUP             0       ****    0 ROOT    
